ELMER SOLVER (v 9.0) STARTED AT: 2022/03/28 09:44:54
ParCommInit:  Initialize #PEs:            1
MAIN: 
MAIN: =============================================================
MAIN: ElmerSolver finite element software, Welcome!
MAIN: This program is free software licensed under (L)GPL
MAIN: Copyright 1st April 1995 - , CSC - IT Center for Science Ltd.
MAIN: Webpage http://www.csc.fi/elmer, Email elmeradm@csc.fi
MAIN: Version: 9.0 (Rev: Release, Compiled: 2020-11-10)
MAIN:  Running one task without MPI parallelization.
MAIN:  Running with just one thread per task.
MAIN:  Lua interpreted linked in.
MAIN: =============================================================
LoadInputFile: Reading only "Run Control" section
MAIN: 
MAIN: 
MAIN: -------------------------------------
MAIN: Reading Model: case.sif
LoadInputFile: Scanning input file: case.sif
LoadInputFile: Scanning only size info
LoadInputFile: First time visiting
LoadInputFile: Reading base load of sif file
LoadInputFile: Loading input file: case.sif
LoadInputFile: Reading base load of sif file
Loading user function library: [SteadyPhaseChange]...[MeltingHeat]
CheckKeyword:  Unlisted keyword: [phase change 2] in section: [boundary condition 6]
Loading user function library: [SteadyPhaseChange2.so]...[MeltingHeat]
LoadInputFile: Number of BCs: 6
LoadInputFile: Number of Body Forces: 0
LoadInputFile: Number of Initial Conditions: 0
LoadInputFile: Number of Materials: 2
LoadInputFile: Number of Equations: 3
LoadInputFile: Number of Solvers: 5
LoadInputFile: Number of Bodies: 5
ElmerAsciiMesh: Base mesh name: ./.
MAIN: -------------------------------------
OptimizeBandwidth: ---------------------------------------------------------
OptimizeBandwidth: Computing matrix structure for: heatsolver...done.
OptimizeBandwidth: Half bandwidth without optimization: 404
OptimizeBandwidth: 
OptimizeBandwidth: Bandwidth Optimization ...done.
OptimizeBandwidth: Half bandwidth after optimization: 20
OptimizeBandwidth: ---------------------------------------------------------
OptimizeBandwidth: ---------------------------------------------------------
OptimizeBandwidth: Computing matrix structure for: steadyphasechange...done.
OptimizeBandwidth: Half bandwidth without optimization: 2
OptimizeBandwidth: 
OptimizeBandwidth: Bandwidth Optimization ...done.
OptimizeBandwidth: Half bandwidth after optimization: 2
OptimizeBandwidth: ---------------------------------------------------------
OptimizeBandwidth: ---------------------------------------------------------
OptimizeBandwidth: Computing matrix structure for: steadyphasechange2...done.
OptimizeBandwidth: Half bandwidth without optimization: 2
OptimizeBandwidth: 
OptimizeBandwidth: Bandwidth Optimization ...done.
OptimizeBandwidth: Half bandwidth after optimization: 2
OptimizeBandwidth: ---------------------------------------------------------
OptimizeBandwidth: ---------------------------------------------------------
OptimizeBandwidth: Computing matrix structure for: mesh update...done.
OptimizeBandwidth: Half bandwidth without optimization: 404
OptimizeBandwidth: 
OptimizeBandwidth: Bandwidth Optimization ...done.
OptimizeBandwidth: Half bandwidth after optimization: 20
OptimizeBandwidth: ---------------------------------------------------------
ElmerSolver: Number of timesteps to be saved: 10
MAIN: 
MAIN: -------------------------------------
MAIN:  Steady state iteration:            1
MAIN: -------------------------------------
MAIN: 
HeatSolve: 
HeatSolve: 
HeatSolve: -------------------------------------
HeatSolve:  TEMPERATURE ITERATION           1
HeatSolve: -------------------------------------
HeatSolve: 
HeatSolve: Starting Assembly...
HeatSolve: Assembly done
       1 0.4576E-01
       2 0.2861E-01
       3 0.2283E-01
       4 0.1567E-01
       5 0.7611E-02
       6 0.3158E-02
       7 0.9908E-03
       8 0.1466E-03
       9 0.5518E-04
      10 0.3643E-04
      11 0.2459E-04
      12 0.1547E-04
      13 0.6754E-05
      14 0.9033E-06
      15 0.1198E-06
      16 0.1350E-07
      17 0.2687E-08
      17 0.2687E-08
ComputeChange: NS (ITER=1) (NRM,RELC): (  350.65640      2.0000000     ) :: heatsolver
HeatSolve: iter:    1 Assembly: (s)    0.01    0.01
HeatSolve: iter:    1 Solve:    (s)    0.00    0.00
HeatSolve:  Result Norm   :    350.65639605242717
HeatSolve:  Relative Change :    2.0000000000000000
HeatSolve: 
HeatSolve: 
HeatSolve: -------------------------------------
HeatSolve:  TEMPERATURE ITERATION           2
HeatSolve: -------------------------------------
HeatSolve: 
HeatSolve: Starting Assembly...
HeatSolve: Assembly done
       1 0.1373E-01
       2 0.8582E-02
       3 0.6850E-02
       4 0.4700E-02
       5 0.2283E-02
       6 0.9475E-03
       7 0.2972E-03
       8 0.4398E-04
       9 0.1655E-04
      10 0.1093E-04
      11 0.7377E-05
      12 0.4640E-05
      13 0.2026E-05
      14 0.2710E-06
      15 0.3593E-07
      16 0.4051E-08
      16 0.4051E-08
ComputeChange: NS (ITER=2) (NRM,RELC): (  452.19261     0.25293975     ) :: heatsolver
HeatSolve: iter:    2 Assembly: (s)    0.01    0.01
HeatSolve: iter:    2 Solve:    (s)    0.00    0.00
HeatSolve:  Result Norm   :    452.19260885405771
HeatSolve:  Relative Change :   0.25293974877245412
HeatSolve: 
HeatSolve: 
HeatSolve: -------------------------------------
HeatSolve:  TEMPERATURE ITERATION           3
HeatSolve: -------------------------------------
HeatSolve: 
HeatSolve: Starting Assembly...
HeatSolve: Assembly done
       1 0.4119E-02
       2 0.2575E-02
       3 0.2055E-02
       4 0.1410E-02
       5 0.6850E-03
       6 0.2842E-03
       7 0.8917E-04
       8 0.1320E-04
       9 0.4966E-05
      10 0.3279E-05
      11 0.2213E-05
      12 0.1392E-05
      13 0.6079E-06
      14 0.8130E-07
      15 0.1078E-07
      16 0.1215E-08
      16 0.1215E-08
ComputeChange: NS (ITER=3) (NRM,RELC): (  482.78404     0.65437854E-01 ) :: heatsolver
HeatSolve: iter:    3 Assembly: (s)    0.00    0.01
HeatSolve: iter:    3 Solve:    (s)    0.00    0.00
HeatSolve:  Result Norm   :    482.78404145970904
HeatSolve:  Relative Change :    6.5437853652035527E-002
HeatSolve: 
HeatSolve: 
HeatSolve: -------------------------------------
HeatSolve:  TEMPERATURE ITERATION           4
HeatSolve: -------------------------------------
HeatSolve: 
HeatSolve: Starting Assembly...
HeatSolve: Assembly done
       1 0.1236E-02
       2 0.7724E-03
       3 0.6165E-03
       4 0.4230E-03
       5 0.2055E-03
       6 0.8527E-04
       7 0.2675E-04
       8 0.3958E-05
       9 0.1490E-05
      10 0.9836E-06
      11 0.6639E-06
      12 0.4176E-06
      13 0.1824E-06
      14 0.2439E-07
      15 0.3234E-08
      15 0.3234E-08
ComputeChange: NS (ITER=4) (NRM,RELC): (  491.96984     0.18847419E-01 ) :: heatsolver
HeatSolve: iter:    4 Assembly: (s)    0.00    0.02
HeatSolve: iter:    4 Solve:    (s)    0.00    0.00
HeatSolve:  Result Norm   :    491.96983905640263
HeatSolve:  Relative Change :    1.8847419395406569E-002
HeatSolve: 
HeatSolve: 
HeatSolve: -------------------------------------
HeatSolve:  TEMPERATURE ITERATION           5
HeatSolve: -------------------------------------
HeatSolve: 
HeatSolve: Starting Assembly...
HeatSolve: Assembly done
       1 0.3707E-03
       2 0.2317E-03
       3 0.1850E-03
       4 0.1269E-03
       5 0.6165E-04
       6 0.2558E-04
       7 0.8025E-05
       8 0.1187E-05
       9 0.4467E-06
      10 0.2949E-06
      11 0.1991E-06
      12 0.1252E-06
      13 0.5471E-07
      14 0.7318E-08
      14 0.7318E-08
ComputeChange: NS (ITER=5) (NRM,RELC): (  494.72626     0.55871760E-02 ) :: heatsolver
HeatSolve: iter:    5 Assembly: (s)    0.01    0.02
HeatSolve: iter:    5 Solve:    (s)    0.00    0.00
HeatSolve:  Result Norm   :    494.72626143156543
HeatSolve:  Relative Change :    5.5871759780942018E-003
HeatSolve: 
HeatSolve: 
HeatSolve: -------------------------------------
HeatSolve:  TEMPERATURE ITERATION           6
HeatSolve: -------------------------------------
HeatSolve: 
HeatSolve: Starting Assembly...
HeatSolve: Assembly done
       1 0.1112E-03
       2 0.6952E-04
       3 0.5549E-04
       4 0.3807E-04
       5 0.1849E-04
       6 0.7674E-05
       7 0.2407E-05
       8 0.3558E-06
       9 0.1335E-06
      10 0.8821E-07
      11 0.5956E-07
      12 0.3749E-07
      13 0.1641E-07
      14 0.2199E-08
      14 0.2199E-08
ComputeChange: NS (ITER=6) (NRM,RELC): (  495.55326     0.16702229E-02 ) :: heatsolver
HeatSolve: iter:    6 Assembly: (s)    0.01    0.03
HeatSolve: iter:    6 Solve:    (s)    0.00    0.00
HeatSolve:  Result Norm   :    495.55325517227334
HeatSolve:  Relative Change :    1.6702228549451948E-003
HeatSolve: 
HeatSolve: 
HeatSolve: -------------------------------------
HeatSolve:  TEMPERATURE ITERATION           7
HeatSolve: -------------------------------------
HeatSolve: 
HeatSolve: Starting Assembly...
HeatSolve: Assembly done
       1 0.3336E-04
       2 0.2086E-04
       3 0.1665E-04
       4 0.1142E-04
       5 0.5548E-05
       6 0.2302E-05
       7 0.7222E-06
       8 0.1066E-06
       9 0.3993E-07
      10 0.2638E-07
      11 0.1782E-07
      12 0.1122E-07
      13 0.4920E-08
      13 0.4920E-08
ComputeChange: NS (ITER=7) (NRM,RELC): (  495.80135     0.50052685E-03 ) :: heatsolver
HeatSolve: iter:    7 Assembly: (s)    0.00    0.03
HeatSolve: iter:    7 Solve:    (s)    0.00    0.00
HeatSolve:  Result Norm   :    495.80135497214326
HeatSolve:  Relative Change :    5.0052684948683965E-004
HeatSolve: 
HeatSolve: 
HeatSolve: -------------------------------------
HeatSolve:  TEMPERATURE ITERATION           8
HeatSolve: -------------------------------------
HeatSolve: 
HeatSolve: Starting Assembly...
HeatSolve: Assembly done
       1 0.1001E-04
       2 0.6257E-05
       3 0.4994E-05
       4 0.3426E-05
       5 0.1664E-05
       6 0.6907E-06
       7 0.2166E-06
       8 0.3168E-07
       9 0.1167E-07
      10 0.7725E-08
      10 0.7725E-08
ComputeChange: NS (ITER=8) (NRM,RELC): (  495.87578     0.15009491E-03 ) :: heatsolver
HeatSolve: iter:    8 Assembly: (s)    0.01    0.04
HeatSolve: iter:    8 Solve:    (s)    0.00    0.00
HeatSolve:  Result Norm   :    495.87577781473180
HeatSolve:  Relative Change :    1.5009490514195648E-004
HeatSolve: 
HeatSolve: 
HeatSolve: -------------------------------------
HeatSolve:  TEMPERATURE ITERATION           9
HeatSolve: -------------------------------------
HeatSolve: 
HeatSolve: Starting Assembly...
HeatSolve: Assembly done
       1 0.3003E-05
       2 0.1878E-05
       3 0.1499E-05
       4 0.1028E-05
       5 0.4994E-06
       6 0.2072E-06
       7 0.6485E-07
       8 0.9085E-08
       8 0.9085E-08
ComputeChange: NS (ITER=9) (NRM,RELC): (  495.89806     0.44929626E-04 ) :: heatsolver
HeatSolve: iter:    9 Assembly: (s)    0.01    0.05
HeatSolve: iter:    9 Solve:    (s)    0.00    0.00
HeatSolve:  Result Norm   :    495.89805782865045
HeatSolve:  Relative Change :    4.4929626327947300E-005
HeatSolve: 
HeatSolve: 
HeatSolve: -------------------------------------
HeatSolve:  TEMPERATURE ITERATION          10
HeatSolve: -------------------------------------
HeatSolve: 
HeatSolve: Starting Assembly...
HeatSolve: Assembly done
       1 0.9025E-06
       2 0.5660E-06
       3 0.4520E-06
       4 0.3091E-06
       5 0.1490E-06
       6 0.6159E-07
       7 0.1932E-07
       8 0.2557E-08
       8 0.2557E-08
ComputeChange: NS (ITER=10) (NRM,RELC): (  495.90479     0.13565858E-04 ) :: heatsolver
HeatSolve: iter:   10 Assembly: (s)    0.00    0.05
HeatSolve: iter:   10 Solve:    (s)    0.00    0.00
HeatSolve:  Result Norm   :    495.90478515710834
HeatSolve:  Relative Change :    1.3565858387000394E-005
HeatSolve: 
HeatSolve: 
HeatSolve: -------------------------------------
HeatSolve:  TEMPERATURE ITERATION          11
HeatSolve: -------------------------------------
HeatSolve: 
HeatSolve: Starting Assembly...
HeatSolve: Assembly done
       1 0.2712E-06
       2 0.1706E-06
       3 0.1363E-06
       4 0.9290E-07
       5 0.4447E-07
       6 0.1831E-07
       7 0.5763E-08
       7 0.5763E-08
ComputeChange: NS (ITER=11) (NRM,RELC): (  495.90678     0.40166151E-05 ) :: heatsolver
HeatSolve: iter:   11 Assembly: (s)    0.00    0.05
HeatSolve: iter:   11 Solve:    (s)    0.00    0.00
HeatSolve:  Result Norm   :    495.90677701975608
HeatSolve:  Relative Change :    4.0166150984773134E-006
HeatSolve: 
HeatSolve: 
HeatSolve: -------------------------------------
HeatSolve:  TEMPERATURE ITERATION          12
HeatSolve: -------------------------------------
HeatSolve: 
HeatSolve: Starting Assembly...
HeatSolve: Assembly done
       1 0.8255E-07
       2 0.5318E-07
       3 0.4260E-07
       4 0.2823E-07
       5 0.1276E-07
       6 0.5139E-08
       6 0.5139E-08
ComputeChange: NS (ITER=12) (NRM,RELC): (  495.90738     0.12133880E-05 ) :: heatsolver
HeatSolve: iter:   12 Assembly: (s)    0.01    0.06
HeatSolve: iter:   12 Solve:    (s)    0.00    0.00
HeatSolve:  Result Norm   :    495.90737874746088
HeatSolve:  Relative Change :    1.2133880148928162E-006
HeatSolve: 
HeatSolve: 
HeatSolve: -------------------------------------
HeatSolve:  TEMPERATURE ITERATION          13
HeatSolve: -------------------------------------
HeatSolve: 
HeatSolve: Starting Assembly...
HeatSolve: Assembly done
       1 0.2602E-07
       2 0.1783E-07
       3 0.1427E-07
       4 0.8597E-08
       4 0.8597E-08
ComputeChange: NS (ITER=13) (NRM,RELC): (  495.90751     0.27203082E-06 ) :: heatsolver
HeatSolve: iter:   13 Assembly: (s)    0.00    0.06
HeatSolve: iter:   13 Solve:    (s)    0.00    0.00
HeatSolve:  Result Norm   :    495.90751364957003
HeatSolve:  Relative Change :    2.7203081983727242E-007
ComputeChange: SS (ITER=1) (NRM,RELC): (  495.90751      2.0000000     ) :: heatsolver
SteadyPhaseChange: --------------------------------------------
SteadyPhaseChange: Using steady algorithm to find the isotherm
SteadyPhaseChange: --------------------------------------------
SteadyPhaseChange: Number of interface nodes:                  11
SteadyPhaseChange: Number of interface elements:               10
SteadyPhaseChange: Width of the interface              1.0000E+00
SteadyPhaseChange: Index of the triple point:                   5
SteadyPhaseChange: Index of the axis point:                     6
SteadyPhaseChange: Body index for solid:                        3
SteadyPhaseChange: Body index for liquid:                       2
SteadyPhaseChange: Steady state isoterm formulation
SteadyPhaseChange: Melting point found:                5.0500E+02
SteadyPhaseChange: Number of isotherm segments:                50
SteadyPhaseChange: Result Norm:                        1.6656E-01
SteadyPhaseChange: Relative Change:                    1.0000E+00
SteadyPhaseChange: Max Height:                         2.4048E-01
SteadyPhaseChange: Max Change in Height:               2.4048E-01
SteadyPhaseChange: Max Angle:                          2.4048E-01
SteadyPhaseChange: Maximum temperature difference:     9.1821E+01
ComputeChange: SS (ITER=1) (NRM,RELC): ( 0.16656231      2.0000000     ) :: steadyphasechange
SteadyPhaseChange2: --------------------------------------------
SteadyPhaseChange2: Using steady algorithm to find the isotherm
SteadyPhaseChange2: --------------------------------------------
SteadyPhaseChange2: Number of interface nodes:                  11
SteadyPhaseChange2: Number of interface elements:               10
SteadyPhaseChange2: Width of the interface              1.0000E+00
SteadyPhaseChange2: Index of the triple point:                   3
SteadyPhaseChange2: Index of the axis point:                     4
SteadyPhaseChange2: Body index for solid:                        2
SteadyPhaseChange2: Body index for liquid:                       1
SteadyPhaseChange2: Steady state isoterm formulation
SteadyPhaseChange2: Melting point found:                5.0500E+02
SteadyPhaseChange2: Number of isotherm segments:                48
SteadyPhaseChange2: Result Norm:                        1.5444E-01
SteadyPhaseChange2: Relative Change:                    1.0000E+00
SteadyPhaseChange2: Max Height:                         2.3127E-01
SteadyPhaseChange2: Max Change in Height:               2.3127E-01
SteadyPhaseChange2: Max Angle:                          2.3127E-01
SteadyPhaseChange2: Maximum temperature difference:     8.8189E+01
ComputeChange: SS (ITER=1) (NRM,RELC): ( 0.15443597      2.0000000     ) :: steadyphasechange2
MeshSolve: 
MeshSolve: -------------------------------------
MeshSolve: MESH UPDATE SOLVER:
MeshSolve: -------------------------------------
MeshSolve: 
MeshSolve: Starting assembly...
MeshSolve: Assembly done
MeshSolve: Set boundaries done
       1 0.1047E-01
       2 0.9289E-03
       3 0.9718E-04
       4 0.1682E-05
       5 0.7010E-07
       6 0.4342E-08
       7 0.2110E-09
       7 0.2110E-09
ComputeChange: NS (ITER=1) (NRM,RELC): ( 0.64895221E-01  2.0000000     ) :: mesh update
MeshSolve:  Result Norm   :    6.4895220926125666E-002
MeshSolve:  Relative Change :    2.0000000000000000
ComputeChange: SS (ITER=1) (NRM,RELC): ( 0.64895221E-01  2.0000000     ) :: mesh update
ResultOutputSolver: -------------------------------------
ResultOutputSolver: Saving with prefix: Case
ResultOutputSolver: Creating list for saving - if not present
CreateListForSaving: Field Variables for Saving
ResultOutputSolver: Saving in unstructured VTK XML (.vtu) format
VtuOutputSolver: Saving results in VTK XML format with prefix: case
VtuOutputSolver: Saving number of partitions: 1
ResultOutputSolver: -------------------------------------
SaveResult: -----------------------------------------
SaveResult: Saving results to file: ././case.result
SaveResult: -----------------------------------------
MAIN: 
MAIN: -------------------------------------
MAIN:  Steady state iteration:            2
MAIN: -------------------------------------
MAIN: 
HeatSolve: 
HeatSolve: 
HeatSolve: -------------------------------------
HeatSolve:  TEMPERATURE ITERATION           1
HeatSolve: -------------------------------------
HeatSolve: 
HeatSolve: Starting Assembly...
HeatSolve: Assembly done
       1 0.8415E-02
       2 0.4448E-02
       3 0.3010E-02
       4 0.2279E-02
       5 0.1409E-02
       6 0.4814E-03
       7 0.1367E-03
       8 0.8464E-04
       9 0.5939E-04
      10 0.4156E-04
      11 0.2735E-04
      12 0.1581E-04
      13 0.4363E-05
      14 0.9873E-06
      15 0.1468E-06
      16 0.2168E-07
      17 0.3062E-08
      17 0.3062E-08
ComputeChange: NS (ITER=1) (NRM,RELC): (  545.39442     0.95048140E-01 ) :: heatsolver
HeatSolve: iter:    1 Assembly: (s)    0.01    0.01
HeatSolve: iter:    1 Solve:    (s)    0.00    0.00
HeatSolve:  Result Norm   :    545.39441960086754
HeatSolve:  Relative Change :    9.5048139969976783E-002
HeatSolve: 
HeatSolve: 
HeatSolve: -------------------------------------
HeatSolve:  TEMPERATURE ITERATION           2
HeatSolve: -------------------------------------
HeatSolve: 
HeatSolve: Starting Assembly...
HeatSolve: Assembly done
       1 0.2525E-02
       2 0.1334E-02
       3 0.9031E-03
       4 0.6838E-03
       5 0.4226E-03
       6 0.1444E-03
       7 0.4100E-04
       8 0.2539E-04
       9 0.1782E-04
      10 0.1247E-04
      11 0.8206E-05
      12 0.4744E-05
      13 0.1309E-05
      14 0.2962E-06
      15 0.4403E-07
      16 0.6505E-08
      16 0.6505E-08
ComputeChange: NS (ITER=2) (NRM,RELC): (  560.48291     0.27287817E-01 ) :: heatsolver
HeatSolve: iter:    2 Assembly: (s)    0.00    0.01
HeatSolve: iter:    2 Solve:    (s)    0.00    0.00
HeatSolve:  Result Norm   :    560.48290857188920
HeatSolve:  Relative Change :    2.7287816806864828E-002
HeatSolve: 
HeatSolve: 
HeatSolve: -------------------------------------
HeatSolve:  TEMPERATURE ITERATION           3
HeatSolve: -------------------------------------
HeatSolve: 
HeatSolve: Starting Assembly...
HeatSolve: Assembly done
       1 0.7574E-03
       2 0.4003E-03
       3 0.2709E-03
       4 0.2052E-03
       5 0.1268E-03
       6 0.4332E-04
       7 0.1230E-04
       8 0.7617E-05
       9 0.5345E-05
      10 0.3741E-05
      11 0.2462E-05
      12 0.1423E-05
      13 0.3927E-06
      14 0.8888E-07
      15 0.1321E-07
      16 0.1952E-08
      16 0.1952E-08
ComputeChange: NS (ITER=3) (NRM,RELC): (  565.02859     0.80775349E-02 ) :: heatsolver
HeatSolve: iter:    3 Assembly: (s)    0.00    0.01
HeatSolve: iter:    3 Solve:    (s)    0.00    0.00
HeatSolve:  Result Norm   :    565.02858778586483
HeatSolve:  Relative Change :    8.0775349317813577E-003
HeatSolve: 
HeatSolve: 
HeatSolve: -------------------------------------
HeatSolve:  TEMPERATURE ITERATION           4
HeatSolve: -------------------------------------
HeatSolve: 
HeatSolve: Starting Assembly...
HeatSolve: Assembly done
       1 0.2272E-03
       2 0.1201E-03
       3 0.8128E-04
       4 0.6155E-04
       5 0.3803E-04
       6 0.1300E-04
       7 0.3690E-05
       8 0.2285E-05
       9 0.1603E-05
      10 0.1122E-05
      11 0.7385E-06
      12 0.4270E-06
      13 0.1178E-06
      14 0.2667E-07
      15 0.3965E-08
      15 0.3965E-08
ComputeChange: NS (ITER=4) (NRM,RELC): (  566.39395     0.24135319E-02 ) :: heatsolver
HeatSolve: iter:    4 Assembly: (s)    0.00    0.02
HeatSolve: iter:    4 Solve:    (s)    0.00    0.00
HeatSolve:  Result Norm   :    566.39394995926853
HeatSolve:  Relative Change :    2.4135318642755556E-003
HeatSolve: 
HeatSolve: 
HeatSolve: -------------------------------------
HeatSolve:  TEMPERATURE ITERATION           5
HeatSolve: -------------------------------------
HeatSolve: 
HeatSolve: Starting Assembly...
HeatSolve: Assembly done
       1 0.6816E-04
       2 0.3603E-04
       3 0.2438E-04
       4 0.1846E-04
       5 0.1141E-04
       6 0.3899E-05
       7 0.1107E-05
       8 0.6852E-06
       9 0.4809E-06
      10 0.3365E-06
      11 0.2215E-06
      12 0.1281E-06
      13 0.3540E-07
      14 0.8016E-08
      14 0.8016E-08
ComputeChange: NS (ITER=5) (NRM,RELC): (  566.80371     0.72318688E-03 ) :: heatsolver
HeatSolve: iter:    5 Assembly: (s)    0.01    0.02
HeatSolve: iter:    5 Solve:    (s)    0.00    0.00
HeatSolve:  Result Norm   :    566.80370680078022
HeatSolve:  Relative Change :    7.2318688459564783E-004
HeatSolve: 
HeatSolve: 
HeatSolve: -------------------------------------
HeatSolve:  TEMPERATURE ITERATION           6
HeatSolve: -------------------------------------
HeatSolve: 
HeatSolve: Starting Assembly...
HeatSolve: Assembly done
       1 0.2045E-04
       2 0.1081E-04
       3 0.7315E-05
       4 0.5539E-05
       5 0.3423E-05
       6 0.1169E-05
       7 0.3313E-06
       8 0.2051E-06
       9 0.1439E-06
      10 0.1007E-06
      11 0.6636E-07
      12 0.3853E-07
      13 0.1073E-07
      14 0.2435E-08
      14 0.2435E-08
ComputeChange: NS (ITER=6) (NRM,RELC): (  566.92665     0.21687589E-03 ) :: heatsolver
HeatSolve: iter:    6 Assembly: (s)    0.00    0.03
HeatSolve: iter:    6 Solve:    (s)    0.00    0.00
HeatSolve:  Result Norm   :    566.92664618992683
HeatSolve:  Relative Change :    2.1687588909003399E-004
HeatSolve: 
HeatSolve: 
HeatSolve: -------------------------------------
HeatSolve:  TEMPERATURE ITERATION           7
HeatSolve: -------------------------------------
HeatSolve: 
HeatSolve: Starting Assembly...
HeatSolve: Assembly done
       1 0.6135E-05
       2 0.3242E-05
       3 0.2195E-05
       4 0.1662E-05
       5 0.1027E-05
       6 0.3507E-06
       7 0.9921E-07
       8 0.6136E-07
       9 0.4306E-07
      10 0.3014E-07
      11 0.1988E-07
      12 0.1158E-07
      13 0.3250E-08
      13 0.3250E-08
ComputeChange: NS (ITER=7) (NRM,RELC): (  566.96353     0.65055930E-04 ) :: heatsolver
HeatSolve: iter:    7 Assembly: (s)    0.00    0.03
HeatSolve: iter:    7 Solve:    (s)    0.00    0.00
HeatSolve:  Result Norm   :    566.96352932972900
HeatSolve:  Relative Change :    6.5055929751340919E-005
HeatSolve: 
HeatSolve: 
HeatSolve: -------------------------------------
HeatSolve:  TEMPERATURE ITERATION           8
HeatSolve: -------------------------------------
HeatSolve: 
HeatSolve: Starting Assembly...
HeatSolve: Assembly done
       1 0.1840E-05
       2 0.9727E-06
       3 0.6584E-06
       4 0.4985E-06
       5 0.3080E-06
       6 0.1051E-06
       7 0.2950E-07
       8 0.1820E-07
       9 0.1277E-07
      10 0.8944E-08
      10 0.8944E-08
ComputeChange: NS (ITER=8) (NRM,RELC): (  566.97459     0.19516982E-04 ) :: heatsolver
HeatSolve: iter:    8 Assembly: (s)    0.00    0.03
HeatSolve: iter:    8 Solve:    (s)    0.00    0.01
HeatSolve:  Result Norm   :    566.97459485474485
HeatSolve:  Relative Change :    1.9516982064272451E-005
HeatSolve: 
HeatSolve: 
HeatSolve: -------------------------------------
HeatSolve:  TEMPERATURE ITERATION           9
HeatSolve: -------------------------------------
HeatSolve: 
HeatSolve: Starting Assembly...
HeatSolve: Assembly done
       1 0.5518E-06
       2 0.2918E-06
       3 0.1976E-06
       4 0.1497E-06
       5 0.9238E-07
       6 0.3122E-07
       7 0.8163E-08
       7 0.8163E-08
ComputeChange: NS (ITER=9) (NRM,RELC): (  566.97788     0.57967811E-05 ) :: heatsolver
HeatSolve: iter:    9 Assembly: (s)    0.00    0.04
HeatSolve: iter:    9 Solve:    (s)    0.00    0.01
HeatSolve:  Result Norm   :    566.97788149187602
HeatSolve:  Relative Change :    5.7967810816151844E-006
HeatSolve: 
HeatSolve: 
HeatSolve: -------------------------------------
HeatSolve:  TEMPERATURE ITERATION          10
HeatSolve: -------------------------------------
HeatSolve: 
HeatSolve: Starting Assembly...
HeatSolve: Assembly done
       1 0.1661E-06
       2 0.8894E-07
       3 0.6051E-07
       4 0.4556E-07
       5 0.2782E-07
       6 0.9165E-08
       6 0.9165E-08
ComputeChange: NS (ITER=10) (NRM,RELC): (  566.97883     0.16682944E-05 ) :: heatsolver
HeatSolve: iter:   10 Assembly: (s)    0.00    0.04
HeatSolve: iter:   10 Solve:    (s)    0.00    0.01
HeatSolve:  Result Norm   :    566.97882737869372
HeatSolve:  Relative Change :    1.6682944071922787E-006
HeatSolve: 
HeatSolve: 
HeatSolve: -------------------------------------
HeatSolve:  TEMPERATURE ITERATION          11
HeatSolve: -------------------------------------
HeatSolve: 
HeatSolve: Starting Assembly...
HeatSolve: Assembly done
       1 0.5154E-07
       2 0.2968E-07
       3 0.2046E-07
       4 0.1479E-07
       5 0.8488E-08
       5 0.8488E-08
ComputeChange: NS (ITER=11) (NRM,RELC): (  566.97912     0.51041444E-06 ) :: heatsolver
HeatSolve: iter:   11 Assembly: (s)    0.01    0.05
HeatSolve: iter:   11 Solve:    (s)    0.00    0.01
HeatSolve:  Result Norm   :    566.97911677294917
HeatSolve:  Relative Change :    5.1041444162729068E-007
ComputeChange: SS (ITER=2) (NRM,RELC): (  566.97912     0.13373318     ) :: heatsolver
SteadyPhaseChange: --------------------------------------------
SteadyPhaseChange: Using steady algorithm to find the isotherm
SteadyPhaseChange: --------------------------------------------
SteadyPhaseChange: Steady state isoterm formulation
SteadyPhaseChange: Melting point found:                5.0500E+02
SteadyPhaseChange: Number of isotherm segments:                48
SteadyPhaseChange: Result Norm:                        4.3543E-01
SteadyPhaseChange: Relative Change:                    6.4914E-01
SteadyPhaseChange: Max Height:                         4.7763E-01
SteadyPhaseChange: Max Change in Height:               3.3312E-01
SteadyPhaseChange: Max Angle:                          4.7763E-01
SteadyPhaseChange: Maximum temperature difference:     1.1823E+02
ComputeChange: SS (ITER=2) (NRM,RELC): ( 0.43543440     0.89326764     ) :: steadyphasechange
SteadyPhaseChange2: --------------------------------------------
SteadyPhaseChange2: Using steady algorithm to find the isotherm
SteadyPhaseChange2: --------------------------------------------
SteadyPhaseChange2: Steady state isoterm formulation
SteadyPhaseChange2: Melting point found:                5.0500E+02
SteadyPhaseChange2: Number of isotherm segments:                42
SteadyPhaseChange2: Result Norm:                        4.2723E-01
SteadyPhaseChange2: Relative Change:                    6.8096E-01
SteadyPhaseChange2: Max Height:                         4.6934E-01
SteadyPhaseChange2: Max Change in Height:               3.4921E-01
SteadyPhaseChange2: Max Angle:                          4.6934E-01
SteadyPhaseChange2: Maximum temperature difference:     1.1700E+02
ComputeChange: SS (ITER=2) (NRM,RELC): ( 0.42723172     0.93797802     ) :: steadyphasechange2
MeshSolve: 
MeshSolve: -------------------------------------
MeshSolve: MESH UPDATE SOLVER:
MeshSolve: -------------------------------------
MeshSolve: 
MeshSolve: Starting assembly...
MeshSolve: Assembly done
MeshSolve: Set boundaries done
       1 0.5431E-02
       2 0.1026E-02
       3 0.2996E-04
       4 0.1246E-05
       5 0.2530E-07
       6 0.1944E-08
       7 0.2875E-10
       7 0.2875E-10
ComputeChange: NS (ITER=1) (NRM,RELC): ( 0.17540589     0.91976827     ) :: mesh update
MeshSolve:  Result Norm   :   0.17540588816969563
MeshSolve:  Relative Change :   0.91976826623387131
ComputeChange: SS (ITER=2) (NRM,RELC): ( 0.17540589     0.91976827     ) :: mesh update
ResultOutputSolver: -------------------------------------
ResultOutputSolver: Saving in unstructured VTK XML (.vtu) format
ResultOutputSolver: -------------------------------------
MAIN: 
MAIN: -------------------------------------
MAIN:  Steady state iteration:            3
MAIN: -------------------------------------
MAIN: 
HeatSolve: 
HeatSolve: 
HeatSolve: -------------------------------------
HeatSolve:  TEMPERATURE ITERATION           1
HeatSolve: -------------------------------------
HeatSolve: 
HeatSolve: Starting Assembly...
HeatSolve: Assembly done
       1 0.1112E-01
       2 0.4791E-02
       3 0.3022E-02
       4 0.2413E-02
       5 0.1561E-02
       6 0.6934E-03
       7 0.2402E-03
       8 0.7674E-04
       9 0.4503E-04
      10 0.2578E-04
      11 0.1449E-04
      12 0.1117E-04
      13 0.3164E-04
      14 0.2356E-05
      15 0.3044E-06
      16 0.2624E-07
      17 0.2296E-08
      17 0.2296E-08
ComputeChange: NS (ITER=1) (NRM,RELC): (  594.81559     0.47919775E-01 ) :: heatsolver
HeatSolve: iter:    1 Assembly: (s)    0.00    0.00
HeatSolve: iter:    1 Solve:    (s)    0.00    0.00
HeatSolve:  Result Norm   :    594.81558734914142
HeatSolve:  Relative Change :    4.7919775288056368E-002
HeatSolve: 
HeatSolve: 
HeatSolve: -------------------------------------
HeatSolve:  TEMPERATURE ITERATION           2
HeatSolve: -------------------------------------
HeatSolve: 
HeatSolve: Starting Assembly...
HeatSolve: Assembly done
       1 0.3335E-02
       2 0.1437E-02
       3 0.9067E-03
       4 0.7238E-03
       5 0.4682E-03
       6 0.2080E-03
       7 0.7205E-04
       8 0.2302E-04
       9 0.1351E-04
      10 0.7734E-05
      11 0.4346E-05
      12 0.3350E-05
      13 0.9491E-05
      14 0.7069E-06
      15 0.9131E-07
      16 0.7871E-08
      16 0.7871E-08
ComputeChange: NS (ITER=2) (NRM,RELC): (  603.78733     0.14970327E-01 ) :: heatsolver
HeatSolve: iter:    2 Assembly: (s)    0.01    0.01
HeatSolve: iter:    2 Solve:    (s)    0.00    0.00
HeatSolve:  Result Norm   :    603.78732625183466
HeatSolve:  Relative Change :    1.4970327204927839E-002
HeatSolve: 
HeatSolve: 
HeatSolve: -------------------------------------
HeatSolve:  TEMPERATURE ITERATION           3
HeatSolve: -------------------------------------
HeatSolve: 
HeatSolve: Starting Assembly...
HeatSolve: Assembly done
       1 0.1000E-02
       2 0.4312E-03
       3 0.2720E-03
       4 0.2171E-03
       5 0.1405E-03
       6 0.6240E-04
       7 0.2162E-04
       8 0.6907E-05
       9 0.4053E-05
      10 0.2320E-05
      11 0.1304E-05
      12 0.1005E-05
      13 0.2846E-05
      14 0.2121E-06
      15 0.2739E-07
      16 0.2361E-08
      16 0.2361E-08
ComputeChange: NS (ITER=3) (NRM,RELC): (  606.53099     0.45337820E-02 ) :: heatsolver
HeatSolve: iter:    3 Assembly: (s)    0.01    0.01
HeatSolve: iter:    3 Solve:    (s)    0.00    0.00
HeatSolve:  Result Norm   :    606.53098596709287
HeatSolve:  Relative Change :    4.5337820432182858E-003
HeatSolve: 
HeatSolve: 
HeatSolve: -------------------------------------
HeatSolve:  TEMPERATURE ITERATION           4
HeatSolve: -------------------------------------
HeatSolve: 
HeatSolve: Starting Assembly...
HeatSolve: Assembly done
       1 0.3001E-03
       2 0.1294E-03
       3 0.8161E-04
       4 0.6514E-04
       5 0.4214E-04
       6 0.1872E-04
       7 0.6485E-05
       8 0.2072E-05
       9 0.1216E-05
      10 0.6961E-06
      11 0.3912E-06
      12 0.3015E-06
      13 0.8535E-06
      14 0.6363E-07
      15 0.8217E-08
      15 0.8217E-08
ComputeChange: NS (ITER=4) (NRM,RELC): (  607.35868     0.13636985E-02 ) :: heatsolver
HeatSolve: iter:    4 Assembly: (s)    0.00    0.02
HeatSolve: iter:    4 Solve:    (s)    0.00    0.00
HeatSolve:  Result Norm   :    607.35867570166113
HeatSolve:  Relative Change :    1.3636984656915428E-003
HeatSolve: 
HeatSolve: 
HeatSolve: -------------------------------------
HeatSolve:  TEMPERATURE ITERATION           5
HeatSolve: -------------------------------------
HeatSolve: 
HeatSolve: Starting Assembly...
HeatSolve: Assembly done
       1 0.9004E-04
       2 0.3881E-04
       3 0.2448E-04
       4 0.1954E-04
       5 0.1264E-04
       6 0.5616E-05
       7 0.1946E-05
       8 0.6219E-06
       9 0.3650E-06
      10 0.2089E-06
      11 0.1174E-06
      12 0.9045E-07
      13 0.2548E-06
      14 0.1911E-07
      15 0.2464E-08
      15 0.2464E-08
ComputeChange: NS (ITER=5) (NRM,RELC): (  607.60740     0.40942800E-03 ) :: heatsolver
HeatSolve: iter:    5 Assembly: (s)    0.01    0.02
HeatSolve: iter:    5 Solve:    (s)    0.00    0.00
HeatSolve:  Result Norm   :    607.60739626827444
HeatSolve:  Relative Change :    4.0942800354917174E-004
HeatSolve: 
HeatSolve: 
HeatSolve: -------------------------------------
HeatSolve:  TEMPERATURE ITERATION           6
HeatSolve: -------------------------------------
HeatSolve: 
HeatSolve: Starting Assembly...
HeatSolve: Assembly done
       1 0.2701E-04
       2 0.1164E-04
       3 0.7345E-05
       4 0.5863E-05
       5 0.3793E-05
       6 0.1685E-05
       7 0.5838E-06
       8 0.1867E-06
       9 0.1095E-06
      10 0.6270E-07
      11 0.3524E-07
      12 0.2714E-07
      13 0.7609E-07
      14 0.5739E-08
      14 0.5739E-08
ComputeChange: NS (ITER=6) (NRM,RELC): (  607.68205     0.12285415E-03 ) :: heatsolver
HeatSolve: iter:    6 Assembly: (s)    0.00    0.03
HeatSolve: iter:    6 Solve:    (s)    0.00    0.00
HeatSolve:  Result Norm   :    607.68204794510598
HeatSolve:  Relative Change :    1.2285415163768774E-004
HeatSolve: 
HeatSolve: 
HeatSolve: -------------------------------------
HeatSolve:  TEMPERATURE ITERATION           7
HeatSolve: -------------------------------------
HeatSolve: 
HeatSolve: Starting Assembly...
HeatSolve: Assembly done
       1 0.8104E-05
       2 0.3493E-05
       3 0.2203E-05
       4 0.1759E-05
       5 0.1138E-05
       6 0.5057E-06
       7 0.1755E-06
       8 0.5617E-07
       9 0.3294E-07
      10 0.1885E-07
      11 0.1060E-07
      12 0.8124E-08
      12 0.8124E-08
ComputeChange: NS (ITER=7) (NRM,RELC): (  607.70445     0.36869348E-04 ) :: heatsolver
HeatSolve: iter:    7 Assembly: (s)    0.00    0.03
HeatSolve: iter:    7 Solve:    (s)    0.00    0.00
HeatSolve:  Result Norm   :    607.70445319885221
HeatSolve:  Relative Change :    3.6869347693330455E-005
HeatSolve: 
HeatSolve: 
HeatSolve: -------------------------------------
HeatSolve:  TEMPERATURE ITERATION           8
HeatSolve: -------------------------------------
HeatSolve: 
HeatSolve: Starting Assembly...
HeatSolve: Assembly done
       1 0.2431E-05
       2 0.1048E-05
       3 0.6609E-06
       4 0.5276E-06
       5 0.3411E-06
       6 0.1514E-06
       7 0.5221E-07
       8 0.1659E-07
       9 0.9755E-08
       9 0.9755E-08
ComputeChange: NS (ITER=8) (NRM,RELC): (  607.71117     0.11050078E-04 ) :: heatsolver
HeatSolve: iter:    8 Assembly: (s)    0.00    0.04
HeatSolve: iter:    8 Solve:    (s)    0.00    0.00
HeatSolve:  Result Norm   :    607.71116841785351
HeatSolve:  Relative Change :    1.1050078478298966E-005
HeatSolve: 
HeatSolve: 
HeatSolve: -------------------------------------
HeatSolve:  TEMPERATURE ITERATION           9
HeatSolve: -------------------------------------
HeatSolve: 
HeatSolve: Starting Assembly...
HeatSolve: Assembly done
       1 0.7286E-06
       2 0.3145E-06
       3 0.1986E-06
       4 0.1585E-06
       5 0.1025E-06
       6 0.4537E-07
       7 0.1554E-07
       8 0.4635E-08
       8 0.4635E-08
ComputeChange: NS (ITER=9) (NRM,RELC): (  607.71317     0.33016411E-05 ) :: heatsolver
HeatSolve: iter:    9 Assembly: (s)    0.01    0.04
HeatSolve: iter:    9 Solve:    (s)    0.00    0.00
HeatSolve:  Result Norm   :    607.71317486534087
HeatSolve:  Relative Change :    3.3016411074023894E-006
HeatSolve: 
HeatSolve: 
HeatSolve: -------------------------------------
HeatSolve:  TEMPERATURE ITERATION          10
HeatSolve: -------------------------------------
HeatSolve: 
HeatSolve: Starting Assembly...
HeatSolve: Assembly done
       1 0.2185E-06
       2 0.9487E-07
       3 0.6015E-07
       4 0.4797E-07
       5 0.3105E-07
       6 0.1366E-07
       7 0.4654E-08
       7 0.4654E-08
ComputeChange: NS (ITER=10) (NRM,RELC): (  607.71376     0.96325047E-06 ) :: heatsolver
HeatSolve: iter:   10 Assembly: (s)    0.01    0.05
HeatSolve: iter:   10 Solve:    (s)    0.00    0.00
HeatSolve:  Result Norm   :    607.71376024562198
HeatSolve:  Relative Change :    9.6325046647981372E-007
ComputeChange: SS (ITER=3) (NRM,RELC): (  607.71376     0.69353691E-01 ) :: heatsolver
SteadyPhaseChange: --------------------------------------------
SteadyPhaseChange: Using steady algorithm to find the isotherm
SteadyPhaseChange: --------------------------------------------
SteadyPhaseChange: Steady state isoterm formulation
SteadyPhaseChange: Melting point found:                5.0500E+02
SteadyPhaseChange: Number of isotherm segments:                48
SteadyPhaseChange: Result Norm:                        5.6492E-01
SteadyPhaseChange: Relative Change:                    2.2932E-01
SteadyPhaseChange: Max Height:                         6.1758E-01
SteadyPhaseChange: Max Change in Height:               1.3995E-01
SteadyPhaseChange: Max Angle:                          6.1758E-01
SteadyPhaseChange: Maximum temperature difference:     9.5344E+01
ComputeChange: SS (ITER=3) (NRM,RELC): ( 0.56491983     0.25887915     ) :: steadyphasechange
SteadyPhaseChange2: --------------------------------------------
SteadyPhaseChange2: Using steady algorithm to find the isotherm
SteadyPhaseChange2: --------------------------------------------
SteadyPhaseChange2: Steady state isoterm formulation
SteadyPhaseChange2: Melting point found:                5.0500E+02
SteadyPhaseChange2: Number of isotherm segments:                44
SteadyPhaseChange2: Result Norm:                        5.5871E-01
SteadyPhaseChange2: Relative Change:                    2.3542E-01
SteadyPhaseChange2: Max Height:                         6.1163E-01
SteadyPhaseChange2: Max Change in Height:               1.4229E-01
SteadyPhaseChange2: Max Angle:                          6.1163E-01
SteadyPhaseChange2: Maximum temperature difference:     9.5704E+01
ComputeChange: SS (ITER=3) (NRM,RELC): ( 0.55870853     0.26670342     ) :: steadyphasechange2
MeshSolve: 
MeshSolve: -------------------------------------
MeshSolve: MESH UPDATE SOLVER:
MeshSolve: -------------------------------------
MeshSolve: 
MeshSolve: Starting assembly...
MeshSolve: Assembly done
MeshSolve: Set boundaries done
       1 0.2071E-02
       2 0.2138E-03
       3 0.3808E-04
       4 0.2074E-06
       5 0.1340E-07
       6 0.2009E-08
       7 0.2284E-10
       7 0.2284E-10
ComputeChange: NS (ITER=1) (NRM,RELC): ( 0.22842848     0.26259572     ) :: mesh update
MeshSolve:  Result Norm   :   0.22842847656382756
MeshSolve:  Relative Change :   0.26259572252658470
ComputeChange: SS (ITER=3) (NRM,RELC): ( 0.22842848     0.26259572     ) :: mesh update
ResultOutputSolver: -------------------------------------
ResultOutputSolver: Saving in unstructured VTK XML (.vtu) format
ResultOutputSolver: -------------------------------------
MAIN: 
MAIN: -------------------------------------
MAIN:  Steady state iteration:            4
MAIN: -------------------------------------
MAIN: 
HeatSolve: 
HeatSolve: 
HeatSolve: -------------------------------------
HeatSolve:  TEMPERATURE ITERATION           1
HeatSolve: -------------------------------------
HeatSolve: 
HeatSolve: Starting Assembly...
HeatSolve: Assembly done
       1 0.6158E-02
       2 0.2749E-02
       3 0.1724E-02
       4 0.1433E-02
       5 0.9422E-03
       6 0.3716E-03
       7 0.1189E-03
       8 0.6404E-04
       9 0.4010E-04
      10 0.2171E-04
      11 0.1124E-04
      12 0.1007E-04
      13 0.5776E-05
      14 0.4430E-06
      15 0.9420E-07
      16 0.1148E-07
      17 0.1791E-08
      17 0.1791E-08
ComputeChange: NS (ITER=1) (NRM,RELC): (  621.85969     0.23009490E-01 ) :: heatsolver
HeatSolve: iter:    1 Assembly: (s)    0.01    0.01
HeatSolve: iter:    1 Solve:    (s)    0.00    0.00
HeatSolve:  Result Norm   :    621.85968907163397
HeatSolve:  Relative Change :    2.3009489728111451E-002
HeatSolve: 
HeatSolve: 
HeatSolve: -------------------------------------
HeatSolve:  TEMPERATURE ITERATION           2
HeatSolve: -------------------------------------
HeatSolve: 
HeatSolve: Starting Assembly...
HeatSolve: Assembly done
       1 0.1848E-02
       2 0.8248E-03
       3 0.5173E-03
       4 0.4299E-03
       5 0.2827E-03
       6 0.1115E-03
       7 0.3568E-04
       8 0.1921E-04
       9 0.1203E-04
      10 0.6512E-05
      11 0.3373E-05
      12 0.3022E-05
      13 0.1733E-05
      14 0.1329E-06
      15 0.2826E-07
      16 0.3446E-08
      16 0.3446E-08
ComputeChange: NS (ITER=2) (NRM,RELC): (  626.31680     0.71417939E-02 ) :: heatsolver
HeatSolve: iter:    2 Assembly: (s)    0.00    0.01
HeatSolve: iter:    2 Solve:    (s)    0.00    0.00
HeatSolve:  Result Norm   :    626.31679866160550
HeatSolve:  Relative Change :    7.1417938629270384E-003
HeatSolve: 
HeatSolve: 
HeatSolve: -------------------------------------
HeatSolve:  TEMPERATURE ITERATION           3
HeatSolve: -------------------------------------
HeatSolve: 
HeatSolve: Starting Assembly...
HeatSolve: Assembly done
       1 0.5543E-03
       2 0.2474E-03
       3 0.1552E-03
       4 0.1290E-03
       5 0.8480E-04
       6 0.3344E-04
       7 0.1070E-04
       8 0.5764E-05
       9 0.3609E-05
      10 0.1954E-05
      11 0.1012E-05
      12 0.9067E-06
      13 0.5203E-06
      14 0.3990E-07
      15 0.8487E-08
      15 0.8487E-08
ComputeChange: NS (ITER=3) (NRM,RELC): (  627.67251     0.21622349E-02 ) :: heatsolver
HeatSolve: iter:    3 Assembly: (s)    0.01    0.01
HeatSolve: iter:    3 Solve:    (s)    0.00    0.00
HeatSolve:  Result Norm   :    627.67250840685915
HeatSolve:  Relative Change :    2.1622349371111980E-003
HeatSolve: 
HeatSolve: 
HeatSolve: -------------------------------------
HeatSolve:  TEMPERATURE ITERATION           4
HeatSolve: -------------------------------------
HeatSolve: 
HeatSolve: Starting Assembly...
HeatSolve: Assembly done
       1 0.1663E-03
       2 0.7423E-04
       3 0.4656E-04
       4 0.3869E-04
       5 0.2544E-04
       6 0.1003E-04
       7 0.3211E-05
       8 0.1729E-05
       9 0.1083E-05
      10 0.5863E-06
      11 0.3038E-06
      12 0.2723E-06
      13 0.1569E-06
      14 0.1204E-07
      15 0.2564E-08
      15 0.2564E-08
ComputeChange: NS (ITER=4) (NRM,RELC): (  628.08088     0.65039938E-03 ) :: heatsolver
HeatSolve: iter:    4 Assembly: (s)    0.01    0.02
HeatSolve: iter:    4 Solve:    (s)    0.00    0.00
HeatSolve:  Result Norm   :    628.08087902212787
HeatSolve:  Relative Change :    6.5039938471488480E-004
HeatSolve: 
HeatSolve: 
HeatSolve: -------------------------------------
HeatSolve:  TEMPERATURE ITERATION           5
HeatSolve: -------------------------------------
HeatSolve: 
HeatSolve: Starting Assembly...
HeatSolve: Assembly done
       1 0.4988E-04
       2 0.2227E-04
       3 0.1397E-04
       4 0.1161E-04
       5 0.7632E-05
       6 0.3010E-05
       7 0.9635E-06
       8 0.5189E-06
       9 0.3250E-06
      10 0.1759E-06
      11 0.9123E-07
      12 0.8176E-07
      13 0.4735E-07
      14 0.3631E-08
      14 0.3631E-08
ComputeChange: NS (ITER=5) (NRM,RELC): (  628.20354     0.19527306E-03 ) :: heatsolver
HeatSolve: iter:    5 Assembly: (s)    0.01    0.02
HeatSolve: iter:    5 Solve:    (s)    0.00    0.00
HeatSolve:  Result Norm   :    628.20353827140173
HeatSolve:  Relative Change :    1.9527305693738082E-004
HeatSolve: 
HeatSolve: 
HeatSolve: -------------------------------------
HeatSolve:  TEMPERATURE ITERATION           6
HeatSolve: -------------------------------------
HeatSolve: 
HeatSolve: Starting Assembly...
HeatSolve: Assembly done
       1 0.1497E-04
       2 0.6681E-05
       3 0.4190E-05
       4 0.3482E-05
       5 0.2290E-05
       6 0.9031E-06
       7 0.2893E-06
       8 0.1558E-06
       9 0.9758E-07
      10 0.5285E-07
      11 0.2749E-07
      12 0.2465E-07
      13 0.1462E-07
      14 0.1120E-08
      14 0.1120E-08
ComputeChange: NS (ITER=6) (NRM,RELC): (  628.24035     0.58597347E-04 ) :: heatsolver
HeatSolve: iter:    6 Assembly: (s)    0.01    0.03
HeatSolve: iter:    6 Solve:    (s)    0.00    0.00
HeatSolve:  Result Norm   :    628.24035041074262
HeatSolve:  Relative Change :    5.8597347119905168E-005
HeatSolve: 
HeatSolve: 
HeatSolve: -------------------------------------
HeatSolve:  TEMPERATURE ITERATION           7
HeatSolve: -------------------------------------
HeatSolve: 
HeatSolve: Starting Assembly...
HeatSolve: Assembly done
       1 0.4490E-05
       2 0.2004E-05
       3 0.1257E-05
       4 0.1045E-05
       5 0.6869E-06
       6 0.2710E-06
       7 0.8684E-07
       8 0.4680E-07
       9 0.2930E-07
      10 0.1588E-07
      11 0.8285E-08
      11 0.8285E-08
ComputeChange: NS (ITER=7) (NRM,RELC): (  628.25140     0.17585993E-04 ) :: heatsolver
HeatSolve: iter:    7 Assembly: (s)    0.01    0.03
HeatSolve: iter:    7 Solve:    (s)    0.00    0.00
HeatSolve:  Result Norm   :    628.25139873857154
HeatSolve:  Relative Change :    1.7585993439903927E-005
HeatSolve: 
HeatSolve: 
HeatSolve: -------------------------------------
HeatSolve:  TEMPERATURE ITERATION           8
HeatSolve: -------------------------------------
HeatSolve: 
HeatSolve: Starting Assembly...
HeatSolve: Assembly done
       1 0.1346E-05
       2 0.6009E-06
       3 0.3770E-06
       4 0.3133E-06
       5 0.2060E-06
       6 0.8106E-07
       7 0.2567E-07
       8 0.1372E-07
       9 0.8577E-08
       9 0.8577E-08
ComputeChange: NS (ITER=8) (NRM,RELC): (  628.25471     0.52718259E-05 ) :: heatsolver
HeatSolve: iter:    8 Assembly: (s)    0.00    0.04
HeatSolve: iter:    8 Solve:    (s)    0.00    0.00
HeatSolve:  Result Norm   :    628.25471077929274
HeatSolve:  Relative Change :    5.2718258926238571E-006
HeatSolve: 
HeatSolve: 
HeatSolve: -------------------------------------
HeatSolve:  TEMPERATURE ITERATION           9
HeatSolve: -------------------------------------
HeatSolve: 
HeatSolve: Starting Assembly...
HeatSolve: Assembly done
       1 0.4030E-06
       2 0.1801E-06
       3 0.1132E-06
       4 0.9401E-07
       5 0.6168E-07
       6 0.2402E-07
       7 0.7248E-08
       7 0.7248E-08
ComputeChange: NS (ITER=9) (NRM,RELC): (  628.25568     0.15376810E-05 ) :: heatsolver
HeatSolve: iter:    9 Assembly: (s)    0.01    0.04
HeatSolve: iter:    9 Solve:    (s)    0.00    0.00
HeatSolve:  Result Norm   :    628.25567683534518
HeatSolve:  Relative Change :    1.5376809646309439E-006
HeatSolve: 
HeatSolve: 
HeatSolve: -------------------------------------
HeatSolve:  TEMPERATURE ITERATION          10
HeatSolve: -------------------------------------
HeatSolve: 
HeatSolve: Starting Assembly...
HeatSolve: Assembly done
       1 0.1208E-06
       2 0.5503E-07
       3 0.3520E-07
       4 0.2917E-07
       5 0.1881E-07
       6 0.7084E-08
       6 0.7084E-08
ComputeChange: NS (ITER=10) (NRM,RELC): (  628.25595     0.42799674E-06 ) :: heatsolver
HeatSolve: iter:   10 Assembly: (s)    0.01    0.05
HeatSolve: iter:   10 Solve:    (s)    0.00    0.00
HeatSolve:  Result Norm   :    628.25594572678142
HeatSolve:  Relative Change :    4.2799673541724513E-007
ComputeChange: SS (ITER=4) (NRM,RELC): (  628.25595     0.33240597E-01 ) :: heatsolver
SteadyPhaseChange: --------------------------------------------
SteadyPhaseChange: Using steady algorithm to find the isotherm
SteadyPhaseChange: --------------------------------------------
SteadyPhaseChange: Steady state isoterm formulation
SteadyPhaseChange: Melting point found:                5.0500E+02
SteadyPhaseChange: Number of isotherm segments:                48
SteadyPhaseChange: Result Norm:                        6.1452E-01
SteadyPhaseChange: Relative Change:                    8.0877E-02
SteadyPhaseChange: Max Height:                         6.8002E-01
SteadyPhaseChange: Max Change in Height:               6.2438E-02
SteadyPhaseChange: Max Angle:                          6.8002E-01
SteadyPhaseChange: Maximum temperature difference:     5.1519E+01
ComputeChange: SS (ITER=4) (NRM,RELC): ( 0.61452161     0.84110627E-01 ) :: steadyphasechange
SteadyPhaseChange2: --------------------------------------------
SteadyPhaseChange2: Using steady algorithm to find the isotherm
SteadyPhaseChange2: --------------------------------------------
SteadyPhaseChange2: Steady state isoterm formulation
SteadyPhaseChange2: Melting point found:                5.0500E+02
SteadyPhaseChange2: Number of isotherm segments:                44
SteadyPhaseChange2: Result Norm:                        6.0965E-01
SteadyPhaseChange2: Relative Change:                    8.3733E-02
SteadyPhaseChange2: Max Height:                         6.7536E-01
SteadyPhaseChange2: Max Change in Height:               6.3736E-02
SteadyPhaseChange2: Max Angle:                          6.7536E-01
SteadyPhaseChange2: Maximum temperature difference:     5.2238E+01
ComputeChange: SS (ITER=4) (NRM,RELC): ( 0.60965282     0.87206390E-01 ) :: steadyphasechange2
MeshSolve: 
MeshSolve: -------------------------------------
MeshSolve: MESH UPDATE SOLVER:
MeshSolve: -------------------------------------
MeshSolve: 
MeshSolve: Starting assembly...
MeshSolve: Assembly done
MeshSolve: Set boundaries done
       1 0.7434E-03
       2 0.6548E-04
       3 0.4338E-05
       4 0.1854E-06
       5 0.2106E-07
       6 0.1837E-08
       7 0.7212E-10
       7 0.7212E-10
ComputeChange: NS (ITER=1) (NRM,RELC): ( 0.24876800     0.85245892E-01 ) :: mesh update
MeshSolve:  Result Norm   :   0.24876799605985925
MeshSolve:  Relative Change :    8.5245892050301322E-002
ComputeChange: SS (ITER=4) (NRM,RELC): ( 0.24876800     0.85245892E-01 ) :: mesh update
ResultOutputSolver: -------------------------------------
ResultOutputSolver: Saving in unstructured VTK XML (.vtu) format
ResultOutputSolver: -------------------------------------
MAIN: 
MAIN: -------------------------------------
MAIN:  Steady state iteration:            5
MAIN: -------------------------------------
MAIN: 
HeatSolve: 
HeatSolve: 
HeatSolve: -------------------------------------
HeatSolve:  TEMPERATURE ITERATION           1
HeatSolve: -------------------------------------
HeatSolve: 
HeatSolve: Starting Assembly...
HeatSolve: Assembly done
       1 0.2594E-02
       2 0.1322E-02
       3 0.7151E-03
       4 0.5837E-03
       5 0.4014E-03
       6 0.1760E-03
       7 0.6528E-04
       8 0.3433E-04
       9 0.1975E-04
      10 0.1117E-04
      11 0.4768E-05
      12 0.1474E-05
      13 0.4639E-06
      14 0.7889E-07
      15 0.9870E-08
      15 0.9870E-08
ComputeChange: NS (ITER=1) (NRM,RELC): (  633.72223     0.86630386E-02 ) :: heatsolver
HeatSolve: iter:    1 Assembly: (s)    0.01    0.01
HeatSolve: iter:    1 Solve:    (s)    0.00    0.00
HeatSolve:  Result Norm   :    633.72222852391803
HeatSolve:  Relative Change :    8.6630385670215318E-003
HeatSolve: 
HeatSolve: 
HeatSolve: -------------------------------------
HeatSolve:  TEMPERATURE ITERATION           2
HeatSolve: -------------------------------------
HeatSolve: 
HeatSolve: Starting Assembly...
HeatSolve: Assembly done
       1 0.7782E-03
       2 0.3965E-03
       3 0.2145E-03
       4 0.1751E-03
       5 0.1204E-03
       6 0.5279E-04
       7 0.1958E-04
       8 0.1030E-04
       9 0.5924E-05
      10 0.3352E-05
      11 0.1430E-05
      12 0.4421E-06
      13 0.1392E-06
      14 0.2367E-07
      15 0.2961E-08
      15 0.2961E-08
ComputeChange: NS (ITER=2) (NRM,RELC): (  635.39919     0.26427114E-02 ) :: heatsolver
HeatSolve: iter:    2 Assembly: (s)    0.01    0.01
HeatSolve: iter:    2 Solve:    (s)    0.00    0.00
HeatSolve:  Result Norm   :    635.39918935767685
HeatSolve:  Relative Change :    2.6427114224547234E-003
HeatSolve: 
HeatSolve: 
HeatSolve: -------------------------------------
HeatSolve:  TEMPERATURE ITERATION           3
HeatSolve: -------------------------------------
HeatSolve: 
HeatSolve: Starting Assembly...
HeatSolve: Assembly done
       1 0.2335E-03
       2 0.1189E-03
       3 0.6436E-04
       4 0.5254E-04
       5 0.3613E-04
       6 0.1584E-04
       7 0.5875E-05
       8 0.3089E-05
       9 0.1777E-05
      10 0.1006E-05
      11 0.4291E-06
      12 0.1326E-06
      13 0.4176E-07
      14 0.7102E-08
      14 0.7102E-08
ComputeChange: NS (ITER=3) (NRM,RELC): (  635.90557     0.79663526E-03 ) :: heatsolver
HeatSolve: iter:    3 Assembly: (s)    0.01    0.02
HeatSolve: iter:    3 Solve:    (s)    0.00    0.00
HeatSolve:  Result Norm   :    635.90557245726473
HeatSolve:  Relative Change :    7.9663525977037260E-004
HeatSolve: 
HeatSolve: 
HeatSolve: -------------------------------------
HeatSolve:  TEMPERATURE ITERATION           4
HeatSolve: -------------------------------------
HeatSolve: 
HeatSolve: Starting Assembly...
HeatSolve: Assembly done
       1 0.7004E-04
       2 0.3568E-04
       3 0.1931E-04
       4 0.1576E-04
       5 0.1084E-04
       6 0.4750E-05
       7 0.1762E-05
       8 0.9264E-06
       9 0.5330E-06
      10 0.3016E-06
      11 0.1288E-06
      12 0.3981E-07
      13 0.1254E-07
      14 0.2132E-08
      14 0.2132E-08
ComputeChange: NS (ITER=4) (NRM,RELC): (  636.05778     0.23933404E-03 ) :: heatsolver
HeatSolve: iter:    4 Assembly: (s)    0.01    0.02
HeatSolve: iter:    4 Solve:    (s)    0.00    0.00
HeatSolve:  Result Norm   :    636.05778452218476
HeatSolve:  Relative Change :    2.3933404069358772E-004
HeatSolve: 
HeatSolve: 
HeatSolve: -------------------------------------
HeatSolve:  TEMPERATURE ITERATION           5
HeatSolve: -------------------------------------
HeatSolve: 
HeatSolve: Starting Assembly...
HeatSolve: Assembly done
       1 0.2101E-04
       2 0.1070E-04
       3 0.5792E-05
       4 0.4728E-05
       5 0.3252E-05
       6 0.1425E-05
       7 0.5285E-06
       8 0.2778E-06
       9 0.1598E-06
      10 0.9047E-07
      11 0.3863E-07
      12 0.1195E-07
      13 0.3763E-08
      13 0.3763E-08
ComputeChange: NS (ITER=5) (NRM,RELC): (  636.10347     0.71830049E-04 ) :: heatsolver
HeatSolve: iter:    5 Assembly: (s)    0.01    0.03
HeatSolve: iter:    5 Solve:    (s)    0.00    0.00
HeatSolve:  Result Norm   :    636.10347422466157
HeatSolve:  Relative Change :    7.1830048529875629E-005
HeatSolve: 
HeatSolve: 
HeatSolve: -------------------------------------
HeatSolve:  TEMPERATURE ITERATION           6
HeatSolve: -------------------------------------
HeatSolve: 
HeatSolve: Starting Assembly...
HeatSolve: Assembly done
       1 0.6303E-05
       2 0.3211E-05
       3 0.1738E-05
       4 0.1419E-05
       5 0.9754E-06
       6 0.4273E-06
       7 0.1583E-06
       8 0.8316E-07
       9 0.4784E-07
      10 0.2709E-07
      11 0.1160E-07
      12 0.3595E-08
      12 0.3595E-08
ComputeChange: NS (ITER=6) (NRM,RELC): (  636.11718     0.21551764E-04 ) :: heatsolver
HeatSolve: iter:    6 Assembly: (s)    0.00    0.03
HeatSolve: iter:    6 Solve:    (s)    0.00    0.00
HeatSolve:  Result Norm   :    636.11718352459275
HeatSolve:  Relative Change :    2.1551764385641633E-005
HeatSolve: 
HeatSolve: 
HeatSolve: -------------------------------------
HeatSolve:  TEMPERATURE ITERATION           7
HeatSolve: -------------------------------------
HeatSolve: 
HeatSolve: Starting Assembly...
HeatSolve: Assembly done
       1 0.1891E-05
       2 0.9634E-06
       3 0.5214E-06
       4 0.4256E-06
       5 0.2926E-06
       6 0.1280E-06
       7 0.4726E-07
       8 0.2479E-07
       9 0.1425E-07
      10 0.8089E-08
      10 0.8089E-08
ComputeChange: NS (ITER=7) (NRM,RELC): (  636.12129     0.64616252E-05 ) :: heatsolver
HeatSolve: iter:    7 Assembly: (s)    0.01    0.04
HeatSolve: iter:    7 Solve:    (s)    0.00    0.00
HeatSolve:  Result Norm   :    636.12129388870198
HeatSolve:  Relative Change :    6.4616252097560628E-006
HeatSolve: 
HeatSolve: 
HeatSolve: -------------------------------------
HeatSolve:  TEMPERATURE ITERATION           8
HeatSolve: -------------------------------------
HeatSolve: 
HeatSolve: Starting Assembly...
HeatSolve: Assembly done
       1 0.5667E-06
       2 0.2890E-06
       3 0.1567E-06
       4 0.1279E-06
       5 0.8772E-07
       6 0.3800E-07
       7 0.1363E-07
       8 0.7045E-08
       8 0.7045E-08
ComputeChange: NS (ITER=8) (NRM,RELC): (  636.12252     0.19315143E-05 ) :: heatsolver
HeatSolve: iter:    8 Assembly: (s)    0.00    0.04
HeatSolve: iter:    8 Solve:    (s)    0.00    0.00
HeatSolve:  Result Norm   :    636.12252256726720
HeatSolve:  Relative Change :    1.9315143046007046E-006
HeatSolve: 
HeatSolve: 
HeatSolve: -------------------------------------
HeatSolve:  TEMPERATURE ITERATION           9
HeatSolve: -------------------------------------
HeatSolve: 
HeatSolve: Starting Assembly...
HeatSolve: Assembly done
       1 0.1698E-06
       2 0.8689E-07
       3 0.4743E-07
       4 0.3870E-07
       5 0.2632E-07
       6 0.1109E-07
       7 0.3663E-08
       7 0.3663E-08
ComputeChange: NS (ITER=9) (NRM,RELC): (  636.12289     0.56988108E-06 ) :: heatsolver
HeatSolve: iter:    9 Assembly: (s)    0.00    0.04
HeatSolve: iter:    9 Solve:    (s)    0.00    0.01
HeatSolve:  Result Norm   :    636.12288508156269
HeatSolve:  Relative Change :    5.6988108317683743E-007
ComputeChange: SS (ITER=5) (NRM,RELC): (  636.12289     0.12443959E-01 ) :: heatsolver
SteadyPhaseChange: --------------------------------------------
SteadyPhaseChange: Using steady algorithm to find the isotherm
SteadyPhaseChange: --------------------------------------------
SteadyPhaseChange: Steady state isoterm formulation
SteadyPhaseChange: Melting point found:                5.0500E+02
SteadyPhaseChange: Number of isotherm segments:                44
SteadyPhaseChange: Result Norm:                        6.3217E-01
SteadyPhaseChange: Relative Change:                    2.8097E-02
SteadyPhaseChange: Max Height:                         7.0561E-01
SteadyPhaseChange: Max Change in Height:               2.5585E-02
SteadyPhaseChange: Max Angle:                          7.0561E-01
SteadyPhaseChange: Maximum temperature difference:     2.3246E+01
ComputeChange: SS (ITER=5) (NRM,RELC): ( 0.63217325     0.28317506E-01 ) :: steadyphasechange
SteadyPhaseChange2: --------------------------------------------
SteadyPhaseChange2: Using steady algorithm to find the isotherm
SteadyPhaseChange2: --------------------------------------------
SteadyPhaseChange2: Steady state isoterm formulation
SteadyPhaseChange2: Melting point found:                5.0500E+02
SteadyPhaseChange2: Number of isotherm segments:                44
SteadyPhaseChange2: Result Norm:                        6.2779E-01
SteadyPhaseChange2: Relative Change:                    2.9091E-02
SteadyPhaseChange2: Max Height:                         7.0198E-01
SteadyPhaseChange2: Max Change in Height:               2.6616E-02
SteadyPhaseChange2: Max Angle:                          7.0198E-01
SteadyPhaseChange2: Maximum temperature difference:     2.3916E+01
ComputeChange: SS (ITER=5) (NRM,RELC): ( 0.62779163     0.29316561E-01 ) :: steadyphasechange2
MeshSolve: 
MeshSolve: -------------------------------------
MeshSolve: MESH UPDATE SOLVER:
MeshSolve: -------------------------------------
MeshSolve: 
MeshSolve: Starting assembly...
MeshSolve: Assembly done
MeshSolve: Set boundaries done
       1 0.2598E-03
       2 0.1856E-04
       3 0.4530E-06
       4 0.4736E-07
       5 0.1636E-08
       6 0.1779E-09
       6 0.1779E-09
ComputeChange: NS (ITER=1) (NRM,RELC): ( 0.25595654     0.28485019E-01 ) :: mesh update
MeshSolve:  Result Norm   :   0.25595653995514023
MeshSolve:  Relative Change :    2.8485018588703403E-002
ComputeChange: SS (ITER=5) (NRM,RELC): ( 0.25595654     0.28485019E-01 ) :: mesh update
ResultOutputSolver: -------------------------------------
ResultOutputSolver: Saving in unstructured VTK XML (.vtu) format
ResultOutputSolver: -------------------------------------
MAIN: 
MAIN: -------------------------------------
MAIN:  Steady state iteration:            6
MAIN: -------------------------------------
MAIN: 
HeatSolve: 
HeatSolve: 
HeatSolve: -------------------------------------
HeatSolve:  TEMPERATURE ITERATION           1
HeatSolve: -------------------------------------
HeatSolve: 
HeatSolve: Starting Assembly...
HeatSolve: Assembly done
       1 0.9686E-03
       2 0.5722E-03
       3 0.2755E-03
       4 0.2247E-03
       5 0.1677E-03
       6 0.7640E-04
       7 0.2561E-04
       8 0.1381E-04
       9 0.8203E-05
      10 0.1724E-05
      11 0.7766E-06
      12 0.3795E-06
      13 0.1224E-07
      14 0.2196E-08
      14 0.2196E-08
ComputeChange: NS (ITER=1) (NRM,RELC): (  638.23423     0.33135897E-02 ) :: heatsolver
HeatSolve: iter:    1 Assembly: (s)    0.01    0.01
HeatSolve: iter:    1 Solve:    (s)    0.00    0.00
HeatSolve:  Result Norm   :    638.23423338688042
HeatSolve:  Relative Change :    3.3135896911773190E-003
HeatSolve: 
HeatSolve: 
HeatSolve: -------------------------------------
HeatSolve:  TEMPERATURE ITERATION           2
HeatSolve: -------------------------------------
HeatSolve: 
HeatSolve: Starting Assembly...
HeatSolve: Assembly done
       1 0.2906E-03
       2 0.1717E-03
       3 0.8265E-04
       4 0.6740E-04
       5 0.5030E-04
       6 0.2292E-04
       7 0.7684E-05
       8 0.4144E-05
       9 0.2461E-05
      10 0.5171E-06
      11 0.2330E-06
      12 0.1138E-06
      13 0.3671E-08
      13 0.3671E-08
ComputeChange: NS (ITER=2) (NRM,RELC): (  638.87256     0.99964106E-03 ) :: heatsolver
HeatSolve: iter:    2 Assembly: (s)    0.01    0.01
HeatSolve: iter:    2 Solve:    (s)    0.00    0.00
HeatSolve:  Result Norm   :    638.87255757988146
HeatSolve:  Relative Change :    9.9964105980179232E-004
HeatSolve: 
HeatSolve: 
HeatSolve: -------------------------------------
HeatSolve:  TEMPERATURE ITERATION           3
HeatSolve: -------------------------------------
HeatSolve: 
HeatSolve: Starting Assembly...
HeatSolve: Assembly done
       1 0.8718E-04
       2 0.5150E-04
       3 0.2480E-04
       4 0.2022E-04
       5 0.1509E-04
       6 0.6876E-05
       7 0.2305E-05
       8 0.1243E-05
       9 0.7382E-06
      10 0.1550E-06
      11 0.6986E-07
      12 0.3416E-07
      13 0.1101E-08
      13 0.1101E-08
ComputeChange: NS (ITER=3) (NRM,RELC): (  639.06452     0.30041810E-03 ) :: heatsolver
HeatSolve: iter:    3 Assembly: (s)    0.01    0.02
HeatSolve: iter:    3 Solve:    (s)    0.00    0.00
HeatSolve:  Result Norm   :    639.06451529537310
HeatSolve:  Relative Change :    3.0041810284093314E-004
HeatSolve: 
HeatSolve: 
HeatSolve: -------------------------------------
HeatSolve:  TEMPERATURE ITERATION           4
HeatSolve: -------------------------------------
HeatSolve: 
HeatSolve: Starting Assembly...
HeatSolve: Assembly done
       1 0.2615E-04
       2 0.1545E-04
       3 0.7439E-05
       4 0.6067E-05
       5 0.4527E-05
       6 0.2063E-05
       7 0.6916E-06
       8 0.3730E-06
       9 0.2215E-06
      10 0.4649E-07
      11 0.2095E-07
      12 0.1025E-07
      13 0.3304E-09
      13 0.3304E-09
ComputeChange: NS (ITER=4) (NRM,RELC): (  639.12215     0.90178495E-04 ) :: heatsolver
HeatSolve: iter:    4 Assembly: (s)    0.01    0.02
HeatSolve: iter:    4 Solve:    (s)    0.00    0.00
HeatSolve:  Result Norm   :    639.12214776996530
HeatSolve:  Relative Change :    9.0178494671478966E-005
HeatSolve: 
HeatSolve: 
HeatSolve: -------------------------------------
HeatSolve:  TEMPERATURE ITERATION           5
HeatSolve: -------------------------------------
HeatSolve: 
HeatSolve: Starting Assembly...
HeatSolve: Assembly done
       1 0.7846E-05
       2 0.4635E-05
       3 0.2232E-05
       4 0.1820E-05
       5 0.1358E-05
       6 0.6189E-06
       7 0.2075E-06
       8 0.1119E-06
       9 0.6644E-07
      10 0.1394E-07
      11 0.6283E-08
      11 0.6283E-08
ComputeChange: NS (ITER=5) (NRM,RELC): (  639.13949     0.27132507E-04 ) :: heatsolver
HeatSolve: iter:    5 Assembly: (s)    0.01    0.03
HeatSolve: iter:    5 Solve:    (s)    0.00    0.00
HeatSolve:  Result Norm   :    639.13948899105242
HeatSolve:  Relative Change :    2.7132506504791695E-005
HeatSolve: 
HeatSolve: 
HeatSolve: -------------------------------------
HeatSolve:  TEMPERATURE ITERATION           6
HeatSolve: -------------------------------------
HeatSolve: 
HeatSolve: Starting Assembly...
HeatSolve: Assembly done
       1 0.2353E-05
       2 0.1389E-05
       3 0.6676E-06
       4 0.5444E-06
       5 0.4067E-06
       6 0.1856E-06
       7 0.6222E-07
       8 0.3356E-07
       9 0.1993E-07
      10 0.4195E-08
      10 0.4195E-08
ComputeChange: NS (ITER=6) (NRM,RELC): (  639.14465     0.80751146E-05 ) :: heatsolver
HeatSolve: iter:    6 Assembly: (s)    0.01    0.03
HeatSolve: iter:    6 Solve:    (s)    0.00    0.00
HeatSolve:  Result Norm   :    639.14465013649681
HeatSolve:  Relative Change :    8.0751145796311425E-006
HeatSolve: 
HeatSolve: 
HeatSolve: -------------------------------------
HeatSolve:  TEMPERATURE ITERATION           7
HeatSolve: -------------------------------------
HeatSolve: 
HeatSolve: Starting Assembly...
HeatSolve: Assembly done
       1 0.7058E-06
       2 0.4167E-06
       3 0.2000E-06
       4 0.1631E-06
       5 0.1220E-06
       6 0.5597E-07
       7 0.1899E-07
       8 0.1028E-07
       9 0.6090E-08
       9 0.6090E-08
ComputeChange: NS (ITER=7) (NRM,RELC): (  639.14618     0.23891320E-05 ) :: heatsolver
HeatSolve: iter:    7 Assembly: (s)    0.01    0.04
HeatSolve: iter:    7 Solve:    (s)    0.00    0.00
HeatSolve:  Result Norm   :    639.14617713927021
HeatSolve:  Relative Change :    2.3891320203786964E-006
HeatSolve: 
HeatSolve: 
HeatSolve: -------------------------------------
HeatSolve:  TEMPERATURE ITERATION           8
HeatSolve: -------------------------------------
HeatSolve: 
HeatSolve: Starting Assembly...
HeatSolve: Assembly done
       1 0.2121E-06
       2 0.1255E-06
       3 0.6086E-07
       4 0.4967E-07
       5 0.3686E-07
       6 0.1643E-07
       7 0.5266E-08
       7 0.5266E-08
ComputeChange: NS (ITER=8) (NRM,RELC): (  639.14663     0.71195058E-06 ) :: heatsolver
HeatSolve: iter:    8 Assembly: (s)    0.01    0.05
HeatSolve: iter:    8 Solve:    (s)    0.00    0.00
HeatSolve:  Result Norm   :    639.14663217992074
HeatSolve:  Relative Change :    7.1195057535882061E-007
ComputeChange: SS (ITER=6) (NRM,RELC): (  639.14663     0.47421303E-02 ) :: heatsolver
SteadyPhaseChange: --------------------------------------------
SteadyPhaseChange: Using steady algorithm to find the isotherm
SteadyPhaseChange: --------------------------------------------
SteadyPhaseChange: Steady state isoterm formulation
SteadyPhaseChange: Melting point found:                5.0500E+02
SteadyPhaseChange: Number of isotherm segments:                42
SteadyPhaseChange: Result Norm:                        6.3878E-01
SteadyPhaseChange: Relative Change:                    1.0458E-02
SteadyPhaseChange: Max Height:                         7.1608E-01
SteadyPhaseChange: Max Change in Height:               1.0475E-02
SteadyPhaseChange: Max Angle:                          7.1608E-01
SteadyPhaseChange: Maximum temperature difference:     9.7303E+00
ComputeChange: SS (ITER=6) (NRM,RELC): ( 0.63877893     0.10394850E-01 ) :: steadyphasechange
SteadyPhaseChange2: --------------------------------------------
SteadyPhaseChange2: Using steady algorithm to find the isotherm
SteadyPhaseChange2: --------------------------------------------
SteadyPhaseChange2: Steady state isoterm formulation
SteadyPhaseChange2: Melting point found:                5.0500E+02
SteadyPhaseChange2: Number of isotherm segments:                42
SteadyPhaseChange2: Result Norm:                        6.3468E-01
SteadyPhaseChange2: Relative Change:                    1.0970E-02
SteadyPhaseChange2: Max Height:                         7.1284E-01
SteadyPhaseChange2: Max Change in Height:               1.0863E-02
SteadyPhaseChange2: Max Angle:                          7.1284E-01
SteadyPhaseChange2: Maximum temperature difference:     9.9590E+00
ComputeChange: SS (ITER=6) (NRM,RELC): ( 0.63467864     0.10910378E-01 ) :: steadyphasechange2
MeshSolve: 
MeshSolve: -------------------------------------
MeshSolve: MESH UPDATE SOLVER:
MeshSolve: -------------------------------------
MeshSolve: 
MeshSolve: Starting assembly...
MeshSolve: Assembly done
MeshSolve: Set boundaries done
       1 0.9634E-04
       2 0.1335E-03
       3 0.4238E-06
       4 0.2080E-07
       5 0.1379E-08
       6 0.8794E-10
       6 0.8794E-10
ComputeChange: NS (ITER=1) (NRM,RELC): ( 0.25865219     0.10476492E-01 ) :: mesh update
MeshSolve:  Result Norm   :   0.25865218698219289
MeshSolve:  Relative Change :    1.0476491695333901E-002
ComputeChange: SS (ITER=6) (NRM,RELC): ( 0.25865219     0.10476492E-01 ) :: mesh update
ResultOutputSolver: -------------------------------------
ResultOutputSolver: Saving in unstructured VTK XML (.vtu) format
ResultOutputSolver: -------------------------------------
MAIN: 
MAIN: -------------------------------------
MAIN:  Steady state iteration:            7
MAIN: -------------------------------------
MAIN: 
HeatSolve: 
HeatSolve: 
HeatSolve: -------------------------------------
HeatSolve:  TEMPERATURE ITERATION           1
HeatSolve: -------------------------------------
HeatSolve: 
HeatSolve: Starting Assembly...
HeatSolve: Assembly done
       1 0.3671E-03
       2 0.2208E-03
       3 0.1093E-03
       4 0.8808E-04
       5 0.7005E-04
       6 0.3888E-04
       7 0.1004E-04
       8 0.4752E-05
       9 0.2889E-05
      10 0.2034E-05
      11 0.7844E-06
      12 0.4624E-07
      13 0.3843E-08
      13 0.3843E-08
ComputeChange: NS (ITER=1) (NRM,RELC): (  639.97036     0.12879588E-02 ) :: heatsolver
HeatSolve: iter:    1 Assembly: (s)    0.01    0.01
HeatSolve: iter:    1 Solve:    (s)    0.00    0.00
HeatSolve:  Result Norm   :    639.97035719162204
HeatSolve:  Relative Change :    1.2879588318282171E-003
HeatSolve: 
HeatSolve: 
HeatSolve: -------------------------------------
HeatSolve:  TEMPERATURE ITERATION           2
HeatSolve: -------------------------------------
HeatSolve: 
HeatSolve: Starting Assembly...
HeatSolve: Assembly done
       1 0.1101E-03
       2 0.6624E-04
       3 0.3279E-04
       4 0.2642E-04
       5 0.2102E-04
       6 0.1166E-04
       7 0.3013E-05
       8 0.1426E-05
       9 0.8666E-06
      10 0.6102E-06
      11 0.2353E-06
      12 0.1387E-07
      13 0.1153E-08
      13 0.1153E-08
ComputeChange: NS (ITER=2) (NRM,RELC): (  640.21820     0.38719910E-03 ) :: heatsolver
HeatSolve: iter:    2 Assembly: (s)    0.01    0.01
HeatSolve: iter:    2 Solve:    (s)    0.00    0.00
HeatSolve:  Result Norm   :    640.21820111923375
HeatSolve:  Relative Change :    3.8719909813711981E-004
HeatSolve: 
HeatSolve: 
HeatSolve: -------------------------------------
HeatSolve:  TEMPERATURE ITERATION           3
HeatSolve: -------------------------------------
HeatSolve: 
HeatSolve: Starting Assembly...
HeatSolve: Assembly done
       1 0.3304E-04
       2 0.1987E-04
       3 0.9837E-05
       4 0.7928E-05
       5 0.6305E-05
       6 0.3499E-05
       7 0.9039E-06
       8 0.4277E-06
       9 0.2600E-06
      10 0.1831E-06
      11 0.7059E-07
      12 0.4161E-08
      12 0.4161E-08
ComputeChange: NS (ITER=3) (NRM,RELC): (  640.29259     0.11618965E-03 ) :: heatsolver
HeatSolve: iter:    3 Assembly: (s)    0.01    0.02
HeatSolve: iter:    3 Solve:    (s)    0.00    0.00
HeatSolve:  Result Norm   :    640.29259216687899
HeatSolve:  Relative Change :    1.1618964562466433E-004
HeatSolve: 
HeatSolve: 
HeatSolve: -------------------------------------
HeatSolve:  TEMPERATURE ITERATION           4
HeatSolve: -------------------------------------
HeatSolve: 
HeatSolve: Starting Assembly...
HeatSolve: Assembly done
       1 0.9913E-05
       2 0.5963E-05
       3 0.2953E-05
       4 0.2380E-05
       5 0.1892E-05
       6 0.1050E-05
       7 0.2712E-06
       8 0.1284E-06
       9 0.7797E-07
      10 0.5496E-07
      11 0.2118E-07
      12 0.1248E-08
      12 0.1248E-08
ComputeChange: NS (ITER=4) (NRM,RELC): (  640.31494     0.34900915E-04 ) :: heatsolver
HeatSolve: iter:    4 Assembly: (s)    0.01    0.02
HeatSolve: iter:    4 Solve:    (s)    0.00    0.00
HeatSolve:  Result Norm   :    640.31493935415790
HeatSolve:  Relative Change :    3.4900914962397115E-005
HeatSolve: 
HeatSolve: 
HeatSolve: -------------------------------------
HeatSolve:  TEMPERATURE ITERATION           5
HeatSolve: -------------------------------------
HeatSolve: 
HeatSolve: Starting Assembly...
HeatSolve: Assembly done
       1 0.2974E-05
       2 0.1789E-05
       3 0.8863E-06
       4 0.7143E-06
       5 0.5679E-06
       6 0.3149E-06
       7 0.8139E-07
       8 0.3854E-07
       9 0.2338E-07
      10 0.1650E-07
      11 0.6353E-08
      11 0.6353E-08
ComputeChange: NS (ITER=5) (NRM,RELC): (  640.32160     0.10403309E-04 ) :: heatsolver
HeatSolve: iter:    5 Assembly: (s)    0.01    0.03
HeatSolve: iter:    5 Solve:    (s)    0.00    0.00
HeatSolve:  Result Norm   :    640.32160078273580
HeatSolve:  Relative Change :    1.0403308618989692E-005
HeatSolve: 
HeatSolve: 
HeatSolve: -------------------------------------
HeatSolve:  TEMPERATURE ITERATION           6
HeatSolve: -------------------------------------
HeatSolve: 
HeatSolve: Starting Assembly...
HeatSolve: Assembly done
       1 0.8943E-06
       2 0.5391E-06
       3 0.2683E-06
       4 0.2165E-06
       5 0.1717E-06
       6 0.9456E-07
       7 0.2452E-07
       8 0.1168E-07
       9 0.6978E-08
       9 0.6978E-08
ComputeChange: NS (ITER=6) (NRM,RELC): (  640.32360     0.31277126E-05 ) :: heatsolver
HeatSolve: iter:    6 Assembly: (s)    0.01    0.03
HeatSolve: iter:    6 Solve:    (s)    0.00    0.00
HeatSolve:  Result Norm   :    640.32360352778812
HeatSolve:  Relative Change :    3.1277125711039518E-006
HeatSolve: 
HeatSolve: 
HeatSolve: -------------------------------------
HeatSolve:  TEMPERATURE ITERATION           7
HeatSolve: -------------------------------------
HeatSolve: 
HeatSolve: Starting Assembly...
HeatSolve: Assembly done
       1 0.2700E-06
       2 0.1637E-06
       3 0.8288E-07
       4 0.6701E-07
       5 0.5265E-07
       6 0.2813E-07
       7 0.6949E-08
       7 0.6949E-08
ComputeChange: NS (ITER=7) (NRM,RELC): (  640.32422     0.95905837E-06 ) :: heatsolver
HeatSolve: iter:    7 Assembly: (s)    0.01    0.04
HeatSolve: iter:    7 Solve:    (s)    0.00    0.00
HeatSolve:  Result Norm   :    640.32421763579691
HeatSolve:  Relative Change :    9.5905837442811315E-007
ComputeChange: SS (ITER=7) (NRM,RELC): (  640.32422     0.18407382E-02 ) :: heatsolver
SteadyPhaseChange: --------------------------------------------
SteadyPhaseChange: Using steady algorithm to find the isotherm
SteadyPhaseChange: --------------------------------------------
SteadyPhaseChange: Steady state isoterm formulation
SteadyPhaseChange: Melting point found:                5.0500E+02
SteadyPhaseChange: Number of isotherm segments:                42
SteadyPhaseChange: Result Norm:                        6.4138E-01
SteadyPhaseChange: Relative Change:                    4.1068E-03
SteadyPhaseChange: Max Height:                         7.2018E-01
SteadyPhaseChange: Max Change in Height:               4.1035E-03
SteadyPhaseChange: Max Angle:                          7.2018E-01
SteadyPhaseChange: Maximum temperature difference:     3.8079E+00
ComputeChange: SS (ITER=7) (NRM,RELC): ( 0.64138248     0.40675329E-02 ) :: steadyphasechange
SteadyPhaseChange2: --------------------------------------------
SteadyPhaseChange2: Using steady algorithm to find the isotherm
SteadyPhaseChange2: --------------------------------------------
SteadyPhaseChange2: Steady state isoterm formulation
SteadyPhaseChange2: Melting point found:                5.0500E+02
SteadyPhaseChange2: Number of isotherm segments:                42
SteadyPhaseChange2: Result Norm:                        6.3738E-01
SteadyPhaseChange2: Relative Change:                    4.2913E-03
SteadyPhaseChange2: Max Height:                         7.1711E-01
SteadyPhaseChange2: Max Change in Height:               4.2663E-03
SteadyPhaseChange2: Max Angle:                          7.1711E-01
SteadyPhaseChange2: Maximum temperature difference:     3.9083E+00
ComputeChange: SS (ITER=7) (NRM,RELC): ( 0.63738267     0.42514080E-02 ) :: steadyphasechange2
MeshSolve: 
MeshSolve: -------------------------------------
MeshSolve: MESH UPDATE SOLVER:
MeshSolve: -------------------------------------
MeshSolve: 
MeshSolve: Starting assembly...
MeshSolve: Assembly done
MeshSolve: Set boundaries done
       1 0.3866E-04
       2 0.1211E-03
       3 0.3847E-06
       4 0.8771E-08
       5 0.1764E-09
       5 0.1764E-09
ComputeChange: NS (ITER=1) (NRM,RELC): ( 0.25971516     0.41012222E-02 ) :: mesh update
MeshSolve:  Result Norm   :   0.25971515681924978
MeshSolve:  Relative Change :    4.1012222307895106E-003
ComputeChange: SS (ITER=7) (NRM,RELC): ( 0.25971516     0.41012222E-02 ) :: mesh update
ResultOutputSolver: -------------------------------------
ResultOutputSolver: Saving in unstructured VTK XML (.vtu) format
ResultOutputSolver: -------------------------------------
MAIN: 
MAIN: -------------------------------------
MAIN:  Steady state iteration:            8
MAIN: -------------------------------------
MAIN: 
HeatSolve: 
HeatSolve: 
HeatSolve: -------------------------------------
HeatSolve:  TEMPERATURE ITERATION           1
HeatSolve: -------------------------------------
HeatSolve: 
HeatSolve: Starting Assembly...
HeatSolve: Assembly done
       1 0.1482E-03
       2 0.8923E-04
       3 0.4234E-04
       4 0.3441E-04
       5 0.2629E-04
       6 0.1257E-04
       7 0.3848E-05
       8 0.1989E-05
       9 0.1168E-05
      10 0.7382E-06
      11 0.3703E-06
      12 0.1555E-07
      13 0.1331E-08
      13 0.1331E-08
ComputeChange: NS (ITER=1) (NRM,RELC): (  640.64988     0.50845714E-03 ) :: heatsolver
HeatSolve: iter:    1 Assembly: (s)    0.01    0.01
HeatSolve: iter:    1 Solve:    (s)    0.00    0.00
HeatSolve:  Result Norm   :    640.64987784550453
HeatSolve:  Relative Change :    5.0845713563826681E-004
HeatSolve: 
HeatSolve: 
HeatSolve: -------------------------------------
HeatSolve:  TEMPERATURE ITERATION           2
HeatSolve: -------------------------------------
HeatSolve: 
HeatSolve: Starting Assembly...
HeatSolve: Assembly done
       1 0.4447E-04
       2 0.2677E-04
       3 0.1270E-04
       4 0.1032E-04
       5 0.7889E-05
       6 0.3772E-05
       7 0.1154E-05
       8 0.5968E-06
       9 0.3505E-06
      10 0.2215E-06
      11 0.1111E-06
      12 0.4665E-08
      12 0.4665E-08
ComputeChange: NS (ITER=2) (NRM,RELC): (  640.74766     0.15261424E-03 ) :: heatsolver
[...]
      12 0.1399E-08
      12 0.1399E-08
ComputeChange: NS (ITER=3) (NRM,RELC): (  640.77703     0.45840226E-04 ) :: heatsolver
HeatSolve: iter:    3 Assembly: (s)    0.01    0.02
HeatSolve: iter:    3 Solve:    (s)    0.00    0.00
HeatSolve:  Result Norm   :    640.77703029001134
HeatSolve:  Relative Change :    4.5840226334880527E-005
HeatSolve: 
HeatSolve: 
HeatSolve: -------------------------------------
HeatSolve:  TEMPERATURE ITERATION           4
HeatSolve: -------------------------------------
HeatSolve: 
HeatSolve: Starting Assembly...
HeatSolve: Assembly done
       1 0.4003E-05
       2 0.2410E-05
       3 0.1144E-05
       4 0.9302E-06
       5 0.7105E-06
       6 0.3395E-06
       7 0.1039E-06
       8 0.5374E-07
       9 0.3155E-07
      10 0.2002E-07
      11 0.1002E-07
      12 0.4197E-09
      12 0.4197E-09
ComputeChange: NS (ITER=4) (NRM,RELC): (  640.78585     0.13766473E-04 ) :: heatsolver
HeatSolve: iter:    4 Assembly: (s)    0.01    0.02
HeatSolve: iter:    4 Solve:    (s)    0.00    0.00
HeatSolve:  Result Norm   :    640.78585159027932
HeatSolve:  Relative Change :    1.3766472785228827E-005
HeatSolve: 
HeatSolve: 
HeatSolve: -------------------------------------
HeatSolve:  TEMPERATURE ITERATION           5
HeatSolve: -------------------------------------
HeatSolve: 
HeatSolve: Starting Assembly...
HeatSolve: Assembly done
       1 0.1201E-05
       2 0.7232E-06
       3 0.3434E-06
       4 0.2792E-06
       5 0.2132E-06
       6 0.1018E-06
       7 0.3118E-07
       8 0.1613E-07
       9 0.9468E-08
       9 0.9468E-08
ComputeChange: NS (ITER=5) (NRM,RELC): (  640.78846     0.40782242E-05 ) :: heatsolver
HeatSolve: iter:    5 Assembly: (s)    0.01    0.03
HeatSolve: iter:    5 Solve:    (s)    0.00    0.00
HeatSolve:  Result Norm   :    640.78846486400005
HeatSolve:  Relative Change :    4.0782242390069200E-006
HeatSolve: 
HeatSolve: 
HeatSolve: -------------------------------------
HeatSolve:  TEMPERATURE ITERATION           6
HeatSolve: -------------------------------------
HeatSolve: 
HeatSolve: Starting Assembly...
HeatSolve: Assembly done
       1 0.3612E-06
       2 0.2182E-06
       3 0.1048E-06
       4 0.8535E-07
       5 0.6466E-07
       6 0.3002E-07
       7 0.8675E-08
       7 0.8675E-08
ComputeChange: NS (ITER=6) (NRM,RELC): (  640.78926     0.12336313E-05 ) :: heatsolver
HeatSolve: iter:    6 Assembly: (s)    0.01    0.04
HeatSolve: iter:    6 Solve:    (s)    0.00    0.00
HeatSolve:  Result Norm   :    640.78925536120983
HeatSolve:  Relative Change :    1.2336313238009909E-006
HeatSolve: 
HeatSolve: 
HeatSolve: -------------------------------------
HeatSolve:  TEMPERATURE ITERATION           7
HeatSolve: -------------------------------------
HeatSolve: 
HeatSolve: Starting Assembly...
HeatSolve: Assembly done
       1 0.1095E-06
       2 0.6670E-07
       3 0.3296E-07
       4 0.2693E-07
       5 0.1993E-07
       6 0.8558E-08
       6 0.8558E-08
ComputeChange: NS (ITER=7) (NRM,RELC): (  640.78946     0.31641721E-06 ) :: heatsolver
HeatSolve: iter:    7 Assembly: (s)    0.01    0.04
HeatSolve: iter:    7 Solve:    (s)    0.00    0.00
HeatSolve:  Result Norm   :    640.78945811798746
HeatSolve:  Relative Change :    3.1641720560267431E-007
ComputeChange: SS (ITER=8) (NRM,RELC): (  640.78946     0.72630632E-03 ) :: heatsolver
SteadyPhaseChange: --------------------------------------------
SteadyPhaseChange: Using steady algorithm to find the isotherm
SteadyPhaseChange: --------------------------------------------
SteadyPhaseChange: Steady state isoterm formulation
SteadyPhaseChange: Melting point found:                5.0500E+02
SteadyPhaseChange: Number of isotherm segments:                42
SteadyPhaseChange: Result Norm:                        6.4241E-01
SteadyPhaseChange: Relative Change:                    1.6118E-03
SteadyPhaseChange: Max Height:                         7.2180E-01
SteadyPhaseChange: Max Change in Height:               1.6107E-03
SteadyPhaseChange: Max Angle:                          7.2180E-01
SteadyPhaseChange: Maximum temperature difference:     1.4954E+00
ComputeChange: SS (ITER=8) (NRM,RELC): ( 0.64240719     0.15963796E-02 ) :: steadyphasechange
SteadyPhaseChange2: --------------------------------------------
SteadyPhaseChange2: Using steady algorithm to find the isotherm
SteadyPhaseChange2: --------------------------------------------
SteadyPhaseChange2: Steady state isoterm formulation
SteadyPhaseChange2: Melting point found:                5.0500E+02
SteadyPhaseChange2: Number of isotherm segments:                42
SteadyPhaseChange2: Result Norm:                        6.3845E-01
SteadyPhaseChange2: Relative Change:                    1.6826E-03
SteadyPhaseChange2: Max Height:                         7.1877E-01
SteadyPhaseChange2: Max Change in Height:               1.6656E-03
SteadyPhaseChange2: Max Angle:                          7.1877E-01
SteadyPhaseChange2: Maximum temperature difference:     1.5264E+00
ComputeChange: SS (ITER=8) (NRM,RELC): ( 0.63844600     0.16668814E-02 ) :: steadyphasechange2
MeshSolve: 
MeshSolve: -------------------------------------
MeshSolve: MESH UPDATE SOLVER:
MeshSolve: -------------------------------------
MeshSolve: 
MeshSolve: Starting assembly...
MeshSolve: Assembly done
MeshSolve: Set boundaries done
       1 0.1489E-04
       2 0.1373E-05
       3 0.1177E-06
       4 0.1465E-08
       5 0.8613E-10
       5 0.8613E-10
ComputeChange: NS (ITER=1) (NRM,RELC): ( 0.26013263     0.16061475E-02 ) :: mesh update
MeshSolve:  Result Norm   :   0.26013263293994021
MeshSolve:  Relative Change :    1.6061475259279952E-003
ComputeChange: SS (ITER=8) (NRM,RELC): ( 0.26013263     0.16061475E-02 ) :: mesh update
ResultOutputSolver: -------------------------------------
ResultOutputSolver: Saving in unstructured VTK XML (.vtu) format
ResultOutputSolver: -------------------------------------
MAIN: 
MAIN: -------------------------------------
MAIN:  Steady state iteration:            9
MAIN: -------------------------------------
MAIN: 
HeatSolve: 
HeatSolve: 
HeatSolve: -------------------------------------
HeatSolve:  TEMPERATURE ITERATION           1
HeatSolve: -------------------------------------
HeatSolve: 
HeatSolve: Starting Assembly...
HeatSolve: Assembly done
       1 0.5738E-04
       2 0.3418E-04
       3 0.1662E-04
       4 0.1341E-04
       5 0.1062E-04
       6 0.5862E-05
       7 0.1610E-05
       8 0.8254E-06
       9 0.4936E-06
      10 0.4557E-06
      11 0.1728E-06
      12 0.7712E-08
      12 0.7712E-08
ComputeChange: NS (ITER=1) (NRM,RELC): (  640.91337     0.19336150E-03 ) :: heatsolver
HeatSolve: iter:    1 Assembly: (s)    0.01    0.01
HeatSolve: iter:    1 Solve:    (s)    0.00    0.00
HeatSolve:  Result Norm   :    640.91337411111556
HeatSolve:  Relative Change :    1.9336150316931486E-004
HeatSolve: 
HeatSolve: 
HeatSolve: -------------------------------------
HeatSolve:  TEMPERATURE ITERATION           2
HeatSolve: -------------------------------------
HeatSolve: 
HeatSolve: Starting Assembly...
HeatSolve: Assembly done
       1 0.1722E-04
       2 0.1026E-04
       3 0.4989E-05
       4 0.4025E-05
       5 0.3186E-05
       6 0.1759E-05
       7 0.4831E-06
       8 0.2477E-06
       9 0.1481E-06
      10 0.1370E-06
      11 0.5191E-07
      12 0.2313E-08
      12 0.2313E-08
ComputeChange: NS (ITER=2) (NRM,RELC): (  640.95061     0.58100062E-04 ) :: heatsolver
HeatSolve: iter:    2 Assembly: (s)    0.01    0.01
HeatSolve: iter:    2 Solve:    (s)    0.00    0.00
HeatSolve:  Result Norm   :    640.95061229966348
HeatSolve:  Relative Change :    5.8100062007645820E-005
HeatSolve: 
HeatSolve: 
HeatSolve: -------------------------------------
HeatSolve:  TEMPERATURE ITERATION           3
HeatSolve: -------------------------------------
HeatSolve: 
HeatSolve: Starting Assembly...
HeatSolve: Assembly done
       1 0.5166E-05
       2 0.3078E-05
       3 0.1498E-05
       4 0.1208E-05
       5 0.9563E-06
       6 0.5277E-06
       7 0.1450E-06
       8 0.7435E-07
       9 0.4443E-07
      10 0.4119E-07
      11 0.1559E-07
      12 0.6937E-09
      12 0.6937E-09
ComputeChange: NS (ITER=3) (NRM,RELC): (  640.96180     0.17453393E-04 ) :: heatsolver
HeatSolve: iter:    3 Assembly: (s)    0.01    0.02
HeatSolve: iter:    3 Solve:    (s)    0.00    0.00
HeatSolve:  Result Norm   :    640.96179915992104
HeatSolve:  Relative Change :    1.7453392536904339E-005
HeatSolve: 
HeatSolve: 
HeatSolve: -------------------------------------
HeatSolve:  TEMPERATURE ITERATION           4
HeatSolve: -------------------------------------
HeatSolve: 
HeatSolve: Starting Assembly...
HeatSolve: Assembly done
       1 0.1550E-05
       2 0.9237E-06
       3 0.4495E-06
       4 0.3627E-06
       5 0.2870E-06
       6 0.1583E-06
       7 0.4350E-07
       8 0.2232E-07
       9 0.1333E-07
      10 0.1239E-07
      11 0.4682E-08
      11 0.4682E-08
ComputeChange: NS (ITER=4) (NRM,RELC): (  640.96512     0.51806671E-05 ) :: heatsolver
HeatSolve: iter:    4 Assembly: (s)    0.01    0.02
HeatSolve: iter:    4 Solve:    (s)    0.00    0.00
HeatSolve:  Result Norm   :    640.96511977819796
HeatSolve:  Relative Change :    5.1806670534182200E-006
HeatSolve: 
HeatSolve: 
HeatSolve: -------------------------------------
HeatSolve:  TEMPERATURE ITERATION           5
HeatSolve: -------------------------------------
HeatSolve: 
HeatSolve: Starting Assembly...
HeatSolve: Assembly done
       1 0.4663E-06
       2 0.2787E-06
       3 0.1367E-06
       4 0.1104E-06
       5 0.8707E-07
       6 0.4761E-07
       7 0.1314E-07
       8 0.6774E-08
       8 0.6774E-08
ComputeChange: NS (ITER=5) (NRM,RELC): (  640.96613     0.15685223E-05 ) :: heatsolver
HeatSolve: iter:    5 Assembly: (s)    0.01    0.03
HeatSolve: iter:    5 Solve:    (s)    0.00    0.00
HeatSolve:  Result Norm   :    640.96612514705168
HeatSolve:  Relative Change :    1.5685222709180622E-006
HeatSolve: 
HeatSolve: 
HeatSolve: -------------------------------------
HeatSolve:  TEMPERATURE ITERATION           6
HeatSolve: -------------------------------------
HeatSolve: 
HeatSolve: Starting Assembly...
HeatSolve: Assembly done
       1 0.1410E-06
       2 0.8487E-07
       3 0.4262E-07
       4 0.3452E-07
       5 0.2685E-07
       6 0.1401E-07
       7 0.3506E-08
       7 0.3506E-08
ComputeChange: NS (ITER=6) (NRM,RELC): (  640.96644     0.49339615E-06 ) :: heatsolver
HeatSolve: iter:    6 Assembly: (s)    0.01    0.03
HeatSolve: iter:    6 Solve:    (s)    0.00    0.00
HeatSolve:  Result Norm   :    640.96644139734497
HeatSolve:  Relative Change :    4.9339614506161371E-007
ComputeChange: SS (ITER=9) (NRM,RELC): (  640.96644     0.27615754E-03 ) :: heatsolver
SteadyPhaseChange: --------------------------------------------
SteadyPhaseChange: Using steady algorithm to find the isotherm
SteadyPhaseChange: --------------------------------------------
SteadyPhaseChange: Steady state isoterm formulation
SteadyPhaseChange: Melting point found:                5.0500E+02
SteadyPhaseChange: Number of isotherm segments:                42
SteadyPhaseChange: Result Norm:                        6.4280E-01
SteadyPhaseChange: Relative Change:                    6.1917E-04
SteadyPhaseChange: Max Height:                         7.2241E-01
SteadyPhaseChange: Max Change in Height:               6.1819E-04
SteadyPhaseChange: Max Angle:                          7.2241E-01
SteadyPhaseChange: Maximum temperature difference:     5.7390E-01
ComputeChange: SS (ITER=9) (NRM,RELC): ( 0.64280065     0.61229062E-03 ) :: steadyphasechange
SteadyPhaseChange2: --------------------------------------------
SteadyPhaseChange2: Using steady algorithm to find the isotherm
SteadyPhaseChange2: --------------------------------------------
SteadyPhaseChange2: Steady state isoterm formulation
SteadyPhaseChange2: Melting point found:                5.0500E+02
SteadyPhaseChange2: Number of isotherm segments:                42
SteadyPhaseChange2: Result Norm:                        6.3885E-01
SteadyPhaseChange2: Relative Change:                    6.4577E-04
SteadyPhaseChange2: Max Height:                         7.1941E-01
SteadyPhaseChange2: Max Change in Height:               6.3996E-04
SteadyPhaseChange2: Max Angle:                          7.1941E-01
SteadyPhaseChange2: Maximum temperature difference:     5.8643E-01
ComputeChange: SS (ITER=9) (NRM,RELC): ( 0.63885396     0.63879361E-03 ) :: steadyphasechange2
MeshSolve: 
MeshSolve: -------------------------------------
MeshSolve: MESH UPDATE SOLVER:
MeshSolve: -------------------------------------
MeshSolve: 
MeshSolve: Starting assembly...
MeshSolve: Assembly done
MeshSolve: Set boundaries done
       1 0.5826E-05
       2 0.2154E-05
       3 0.2581E-07
       4 0.1421E-08
       5 0.9705E-10
       5 0.9705E-10
ComputeChange: NS (ITER=1) (NRM,RELC): ( 0.26029318     0.61700176E-03 ) :: mesh update
MeshSolve:  Result Norm   :   0.26029318476311780
MeshSolve:  Relative Change :    6.1700176169660081E-004
ComputeChange: SS (ITER=9) (NRM,RELC): ( 0.26029318     0.61700176E-03 ) :: mesh update
ResultOutputSolver: -------------------------------------
ResultOutputSolver: Saving in unstructured VTK XML (.vtu) format
ResultOutputSolver: -------------------------------------
MAIN: 
MAIN: -------------------------------------
MAIN:  Steady state iteration:           10
MAIN: -------------------------------------
MAIN: 
HeatSolve: 
HeatSolve: 
HeatSolve: -------------------------------------
HeatSolve:  TEMPERATURE ITERATION           1
HeatSolve: -------------------------------------
HeatSolve: 
HeatSolve: Starting Assembly...
HeatSolve: Assembly done
       1 0.2248E-04
       2 0.1351E-04
       3 0.6344E-05
       4 0.5176E-05
       5 0.3941E-05
       6 0.1859E-05
       7 0.5833E-06
       8 0.3049E-06
       9 0.1779E-06
      10 0.1161E-06
      11 0.5678E-07
      12 0.2246E-08
      12 0.2246E-08
ComputeChange: NS (ITER=1) (NRM,RELC): (  641.01497     0.75711076E-04 ) :: heatsolver
HeatSolve: iter:    1 Assembly: (s)    0.01    0.01
HeatSolve: iter:    1 Solve:    (s)    0.00    0.00
HeatSolve:  Result Norm   :    641.01497149364741
HeatSolve:  Relative Change :    7.5711076329886551E-005
HeatSolve: 
HeatSolve: 
HeatSolve: -------------------------------------
HeatSolve:  TEMPERATURE ITERATION           2
HeatSolve: -------------------------------------
HeatSolve: 
HeatSolve: Starting Assembly...
HeatSolve: Assembly done
       1 0.6745E-05
       2 0.4053E-05
       3 0.1904E-05
       4 0.1554E-05
       5 0.1183E-05
       6 0.5578E-06
       7 0.1750E-06
       8 0.9149E-07
       9 0.5337E-07
      10 0.3491E-07
      11 0.1706E-07
      12 0.6737E-09
      12 0.6737E-09
ComputeChange: NS (ITER=2) (NRM,RELC): (  641.02955     0.22737650E-04 ) :: heatsolver
HeatSolve: iter:    2 Assembly: (s)    0.01    0.01
HeatSolve: iter:    2 Solve:    (s)    0.00    0.00
HeatSolve:  Result Norm   :    641.02954683329267
HeatSolve:  Relative Change :    2.2737649803741051E-005
HeatSolve: 
HeatSolve: 
HeatSolve: -------------------------------------
HeatSolve:  TEMPERATURE ITERATION           3
HeatSolve: -------------------------------------
HeatSolve: 
HeatSolve: Starting Assembly...
HeatSolve: Assembly done
       1 0.2024E-05
       2 0.1216E-05
       3 0.5715E-06
       4 0.4663E-06
       5 0.3549E-06
       6 0.1673E-06
       7 0.5251E-07
       8 0.2745E-07
       9 0.1601E-07
      10 0.1050E-07
      11 0.5125E-08
      11 0.5125E-08
ComputeChange: NS (ITER=3) (NRM,RELC): (  641.03388     0.67600304E-05 ) :: heatsolver
HeatSolve: iter:    3 Assembly: (s)    0.01    0.02
HeatSolve: iter:    3 Solve:    (s)    0.00    0.00
HeatSolve:  Result Norm   :    641.03388022713523
HeatSolve:  Relative Change :    6.7600303558980647E-006
HeatSolve: 
HeatSolve: 
HeatSolve: -------------------------------------
HeatSolve:  TEMPERATURE ITERATION           4
HeatSolve: -------------------------------------
HeatSolve: 
HeatSolve: Starting Assembly...
HeatSolve: Assembly done
       1 0.6083E-06
       2 0.3665E-06
       3 0.1734E-06
       4 0.1417E-06
       5 0.1074E-06
       6 0.5027E-07
       7 0.1581E-07
       8 0.8288E-08
       8 0.8288E-08
ComputeChange: NS (ITER=4) (NRM,RELC): (  641.03520     0.20636853E-05 ) :: heatsolver
HeatSolve: iter:    4 Assembly: (s)    0.00    0.02
HeatSolve: iter:    4 Solve:    (s)    0.00    0.00
HeatSolve:  Result Norm   :    641.03520312072567
HeatSolve:  Relative Change :    2.0636853467932216E-006
HeatSolve: 
HeatSolve: 
HeatSolve: -------------------------------------
HeatSolve:  TEMPERATURE ITERATION           5
HeatSolve: -------------------------------------
HeatSolve: 
HeatSolve: Starting Assembly...
HeatSolve: Assembly done
       1 0.1831E-06
       2 0.1107E-06
       3 0.5315E-07
       4 0.4349E-07
       5 0.3260E-07
       6 0.1464E-07
       7 0.4211E-08
       7 0.4211E-08
ComputeChange: NS (ITER=5) (NRM,RELC): (  641.03561     0.63282225E-06 ) :: heatsolver
HeatSolve: iter:    5 Assembly: (s)    0.00    0.02
HeatSolve: iter:    5 Solve:    (s)    0.00    0.00
HeatSolve:  Result Norm   :    641.03560878219525
HeatSolve:  Relative Change :    6.3282225259216903E-007
ComputeChange: SS (ITER=10) (NRM,RELC): (  641.03561     0.10790526E-03 ) :: heatsolver
SteadyPhaseChange: --------------------------------------------
SteadyPhaseChange: Using steady algorithm to find the isotherm
SteadyPhaseChange: --------------------------------------------
SteadyPhaseChange: Steady state isoterm formulation
SteadyPhaseChange: Melting point found:                5.0500E+02
SteadyPhaseChange: Number of isotherm segments:                42
SteadyPhaseChange: Result Norm:                        6.4295E-01
SteadyPhaseChange: Relative Change:                    2.4091E-04
SteadyPhaseChange: Max Height:                         7.2265E-01
SteadyPhaseChange: Max Change in Height:               2.4107E-04
SteadyPhaseChange: Max Angle:                          7.2265E-01
SteadyPhaseChange: Maximum temperature difference:     2.2382E-01
ComputeChange: SS (ITER=10) (NRM,RELC): ( 0.64295394     0.23844345E-03 ) :: steadyphasechange
SteadyPhaseChange2: --------------------------------------------
SteadyPhaseChange2: Using steady algorithm to find the isotherm
SteadyPhaseChange2: --------------------------------------------
SteadyPhaseChange2: Steady state isoterm formulation
SteadyPhaseChange2: Melting point found:                5.0500E+02
SteadyPhaseChange2: Number of isotherm segments:                42
SteadyPhaseChange2: Result Norm:                        6.3901E-01
SteadyPhaseChange2: Relative Change:                    2.5080E-04
SteadyPhaseChange2: Max Height:                         7.1966E-01
SteadyPhaseChange2: Max Change in Height:               2.4853E-04
SteadyPhaseChange2: Max Angle:                          7.1966E-01
SteadyPhaseChange2: Maximum temperature difference:     2.2776E-01
ComputeChange: SS (ITER=10) (NRM,RELC): ( 0.63901260     0.24827958E-03 ) :: steadyphasechange2
MeshSolve: 
MeshSolve: -------------------------------------
MeshSolve: MESH UPDATE SOLVER:
MeshSolve: -------------------------------------
MeshSolve: 
MeshSolve: Starting assembly...
MeshSolve: Assembly done
MeshSolve: Set boundaries done
       1 0.2225E-05
       2 0.1129E-06
       3 0.5024E-08
       4 0.2278E-09
       4 0.2278E-09
ComputeChange: NS (ITER=1) (NRM,RELC): ( 0.26035555     0.23956295E-03 ) :: mesh update
MeshSolve:  Result Norm   :   0.26035554883753453
MeshSolve:  Relative Change :    2.3956295441435348E-004
ComputeChange: SS (ITER=10) (NRM,RELC): ( 0.26035555     0.23956295E-03 ) :: mesh update
ResultOutputSolver: -------------------------------------
ResultOutputSolver: Saving in unstructured VTK XML (.vtu) format
ResultOutputSolver: -------------------------------------
ElmerSolver: *** Elmer Solver: ALL DONE ***
ElmerSolver: The end
SOLVER TOTAL TIME(CPU,REAL):         0.65        0.65
ELMER SOLVER FINISHED AT: 2022/03/28 09:44:54
